version 2
run General-0-20240623-15:46:41-1368441
attr configname General
attr datetime 20240623-15:46:41
attr experiment General
attr inifile omnetpp.ini
attr iterationvars ""
attr iterationvarsf ""
attr measurement ""
attr network _5xta0_mac_assignment
attr processid 1368441
attr repetition 0
attr replication #0
attr resultdir results
attr runnumber 0
attr seedset 0
param **.wlan[*].typename "\"WirelessInterface\""
param **.wlan[*].radio.typename "\"ApskScalarRadio\""
param *.radioMedium.backgroundNoise.power -80dBm
param **.radioMedium.analogModel.ignorePartialInterference true
param **.wlan[0].mac.typename "\"LMac\""
param **.wlan[0].mac.slotDuration 100ms
param **.wlan[0].mac.numSlots 4
param **.wlan[0].mac.reservedMobileSlots 0
param **.wlan[0].mac.headerLength 10B
param **.wlan[0].radio.transmitter.bitrate "4.5 Mbps"
param **.wlan[0].radio.transmitter.preambleDuration 0.0001s
param **.wlan[0].radio.transmitter.headerLength 10B
param **.wlan[0].radio.transmitter.power 4W
param **.wlan[0].radio.transmitter.modulation "\"BPSK\""
param **.wlan[0].radio.receiver.snirThreshold 4dB
param **.wlan[0].radio.receiver.energyDetection -90dBm
param **.wlan[0].radio.receiver.sensitivity -100dBm
param *.Cell1*.wlan[0].radio.centerFrequency "2.475 GHz"
param *.Cell1*.wlan[0].radio.bandwidth "0.045 GHz"
param *.Cell2*.wlan[0].radio.centerFrequency "2.425 GHz"
param *.Cell2*.wlan[0].radio.bandwidth "0.045 GHz"
param *.Cell3*.wlan[0].radio.centerFrequency "2.475 GHz"
param *.Cell3*.wlan[0].radio.bandwidth "0.045 GHz"
param *.Cell4*.wlan[0].radio.centerFrequency "2.425 GHz"
param *.Cell4*.wlan[0].radio.bandwidth "0.045 GHz"
param *.Cell5*.wlan[0].radio.centerFrequency "2.425 GHz"
param *.Cell5*.wlan[0].radio.bandwidth "0.045 GHz"
param *.Cell6*.wlan[0].radio.centerFrequency "2.475 GHz"
param *.Cell6*.wlan[0].radio.bandwidth "0.045 GHz"
param *.Cell7*.wlan[0].radio.centerFrequency "2.425 GHz"
param *.Cell7*.wlan[0].radio.bandwidth "0.045 GHz"
param *.Cell*Node*.numApps 1
param *.Cell*Node*.app[0].typename "\"UdpBasicApp\""
param *.Cell*Node*.app[0].destAddresses "\"server\""
param *.Cell*Node*.app[0].destPort 1000
param *.Cell*Node*.app[0].localPort 2000
param *.Cell*Node*.app[0].messageLength 1000B
param *.Cell*Node*.app[0].sendInterval exponential(12ms)
param *.Cell*Node*.app[0].packetName "\"UDPData\""
param *.Cell7.numApps 1
param *.Cell7.app[0].typename "\"UdpBasicApp\""
param *.Cell7.app[0].destAddresses "\"server\""
param *.Cell7.app[0].destPort 1000
param *.Cell7.app[0].localPort 3000
param *.Cell7.app[0].messageLength 1000B
param *.Cell7.app[0].sendInterval exponential(12ms)
param *.Cell7.app[0].packetName "\"UDPData\""
param *.Cell7.app[0].startTime 1s
param *.server.numApps 1
param *.server.app[0].typename "\"UdpSink\""
param *.server.app[0].localPort 1000

scalar _5xta0_mac_assignment.radioMedium.propagation "Arrival computation count" 0
scalar _5xta0_mac_assignment.radioMedium "transmission count" 0
scalar _5xta0_mac_assignment.radioMedium "signal send count" 0
scalar _5xta0_mac_assignment.radioMedium "reception computation count" 0
scalar _5xta0_mac_assignment.radioMedium "interference computation count" 0
scalar _5xta0_mac_assignment.radioMedium "reception decision computation count" 0
scalar _5xta0_mac_assignment.radioMedium "listening decision computation count" 0
scalar _5xta0_mac_assignment.radioMedium "reception cache hit" -nan
attr unit %
scalar _5xta0_mac_assignment.radioMedium "interference cache hit" -nan
attr unit %
scalar _5xta0_mac_assignment.radioMedium "noise cache hit" -nan
attr unit %
scalar _5xta0_mac_assignment.radioMedium "snir cache hit" -nan
attr unit %
scalar _5xta0_mac_assignment.radioMedium "reception decision cache hit" -nan
attr unit %
scalar _5xta0_mac_assignment.radioMedium "reception result cache hit" -nan
attr unit %
scalar _5xta0_mac_assignment.server.lo[0].lo rcvdPkFromHl:count 0
attr interpolationmode none
attr source packetReceivedFromUpper
attr title "packets received from higher layer, count"
scalar _5xta0_mac_assignment.server.lo[0].lo rcvdPkFromHl:sum(packetBytes) 0
attr interpolationmode none
attr source packetReceivedFromUpper
attr title "packets received from higher layer, sum(packetBytes)"
scalar _5xta0_mac_assignment.server.lo[0].lo passedUpPk:count 0
attr interpolationmode none
attr source packetSentToUpper
attr title "packets passed to higher layer, count"
scalar _5xta0_mac_assignment.server.lo[0].lo passedUpPk:sum(packetBytes) 0
attr interpolationmode none
attr source packetSentToUpper
attr title "packets passed to higher layer, sum(packetBytes)"
scalar _5xta0_mac_assignment.server.eth[0].mac.queue packetPopped:count 0
attr interpolationmode none
attr title "packet popped, count"
scalar _5xta0_mac_assignment.server.eth[0].mac.queue packetPopped:sum(packetBytes) 0
attr interpolationmode none
attr title "packet popped, sum(packetBytes)"
statistic _5xta0_mac_assignment.server.eth[0].mac.queue queueingTime:histogram
field count 0
field mean -nan
field stddev -nan
field min -nan
field max -nan
field sum 0
field sqrsum 0
attr interpolationmode none
attr source queueingTime(packetPopped)
attr title "queueing times, histogram"
attr unit s
bin	-inf	0
bin	0	0
bin	1	0
scalar _5xta0_mac_assignment.server.eth[0].mac.queue queueLength:max -nan
attr interpolationmode sample-hold
attr source "count(packetPushed) - count(packetPopped) - count(packetRemoved) - count(packetDropped)"
attr title "queue length, max"
scalar _5xta0_mac_assignment.server.eth[0].mac.queue queueLength:timeavg -nan
attr interpolationmode sample-hold
attr source "count(packetPushed) - count(packetPopped) - count(packetRemoved) - count(packetDropped)"
attr title "queue length, timeavg"
scalar _5xta0_mac_assignment.server.eth[0].mac.queue packetPushed:count 0
attr interpolationmode none
attr title "packet pushed, count"
scalar _5xta0_mac_assignment.server.eth[0].mac.queue packetPushed:sum(packetBytes) 0
attr interpolationmode none
attr title "packet pushed, sum(packetBytes)"
scalar _5xta0_mac_assignment.server.eth[0].mac.queue packetDropQueueOverflow:count 0
attr interpolationmode none
attr source packetDropReasonIsQueueOverflow(packetDropped)
attr title "packet drops: queue overflow, count"
scalar _5xta0_mac_assignment.server.eth[0].mac.queue packetDropQueueOverflow:sum(packetBytes) 0
attr interpolationmode none
attr source packetDropReasonIsQueueOverflow(packetDropped)
attr title "packet drops: queue overflow, sum(packetBytes)"
scalar _5xta0_mac_assignment.server.eth[0].mac.queue packetRemoved:count 0
attr interpolationmode none
attr title "packets removed, count"
scalar _5xta0_mac_assignment.server.eth[0].mac.queue packetRemoved:sum(packetBytes) 0
attr interpolationmode none
attr title "packets removed, sum(packetBytes)"
scalar _5xta0_mac_assignment.server.eth[0].mac "simulated time" 0.022420235828
scalar _5xta0_mac_assignment.server.eth[0].mac full-duplex 1
scalar _5xta0_mac_assignment.server.eth[0].mac "frames/sec sent" 0
scalar _5xta0_mac_assignment.server.eth[0].mac "frames/sec rcvd" 0
scalar _5xta0_mac_assignment.server.eth[0].mac "bits/sec sent" 0
scalar _5xta0_mac_assignment.server.eth[0].mac "bits/sec rcvd" 0
scalar _5xta0_mac_assignment.server.eth[0].mac "rx channel idle (%)" 100
scalar _5xta0_mac_assignment.server.eth[0].mac "rx channel utilization (%)" 0
scalar _5xta0_mac_assignment.server.eth[0].mac rxPausePkUnits:count 0
attr interpolationmode none
attr title "pause units received, count"
scalar _5xta0_mac_assignment.server.eth[0].mac rxPausePkUnits:sum 0
attr interpolationmode none
attr title "pause units received, sum"
scalar _5xta0_mac_assignment.server.eth[0].mac txPausePkUnits:count 0
attr interpolationmode none
attr title "pause units sent, count"
scalar _5xta0_mac_assignment.server.eth[0].mac txPausePkUnits:sum 0
attr interpolationmode none
attr title "pause units sent, sum"
scalar _5xta0_mac_assignment.server.eth[0].mac rxPkOk:count 0
attr interpolationmode none
attr source rxPkOk
attr title "packets received OK, count"
scalar _5xta0_mac_assignment.server.eth[0].mac rxPkOk:sum(packetBytes) 0
attr interpolationmode none
attr source rxPkOk
attr title "packets received OK, sum(packetBytes)"
scalar _5xta0_mac_assignment.server.eth[0].mac txPk:count 0
attr interpolationmode none
attr source packetSentToLower
attr title "packets transmitted, count"
scalar _5xta0_mac_assignment.server.eth[0].mac txPk:sum(packetBytes) 0
attr interpolationmode none
attr source packetSentToLower
attr title "packets transmitted, sum(packetBytes)"
scalar _5xta0_mac_assignment.server.eth[0].mac packetReceivedFromUpper:count 0
attr interpolationmode none
attr source packetReceivedFromUpper
attr title "packet bytes from higher layer, count"
scalar _5xta0_mac_assignment.server.eth[0].mac packetReceivedFromUpper:sum(packetBytes) 0
attr interpolationmode none
attr source packetReceivedFromUpper
attr title "packet bytes from higher layer, sum(packetBytes)"
scalar _5xta0_mac_assignment.server.eth[0].mac passedUpPk:count 0
attr interpolationmode none
attr source packetSentToUpper
attr title "packets passed to higher layer, count"
scalar _5xta0_mac_assignment.server.eth[0].mac passedUpPk:sum(packetBytes) 0
attr interpolationmode none
attr source packetSentToUpper
attr title "packets passed to higher layer, sum(packetBytes)"
scalar _5xta0_mac_assignment.server.eth[0].mac packetDropIncorrectlyReceived:count 0
attr interpolationmode none
attr source packetDropReasonIsIncorrectlyReceived(packetDropped)
attr title "packet drop: incorrectly received, count"
scalar _5xta0_mac_assignment.server.eth[0].mac packetDropIncorrectlyReceived:sum(packetBytes) 0
attr interpolationmode none
attr source packetDropReasonIsIncorrectlyReceived(packetDropped)
attr title "packet drop: incorrectly received, sum(packetBytes)"
scalar _5xta0_mac_assignment.server.eth[0].mac packetDropInterfaceDown:count 0
attr interpolationmode none
attr source packetDropReasonIsInterfaceDown(packetDropped)
attr title "packet drop: interface down, count"
scalar _5xta0_mac_assignment.server.eth[0].mac packetDropInterfaceDown:sum(packetBytes) 0
attr interpolationmode none
attr source packetDropReasonIsInterfaceDown(packetDropped)
attr title "packet drop: interface down, sum(packetBytes)"
scalar _5xta0_mac_assignment.server.eth[0].mac packetDropNotAddressedToUs:count 0
attr interpolationmode none
attr source packetDropReasonIsNotAddressedToUs(packetDropped)
attr title "packet drop: not addressed to us, count"
scalar _5xta0_mac_assignment.server.eth[0].mac packetDropNotAddressedToUs:sum(packetBytes) 0
attr interpolationmode none
attr source packetDropReasonIsNotAddressedToUs(packetDropped)
attr title "packet drop: not addressed to us, sum(packetBytes)"
scalar _5xta0_mac_assignment.server.eth[0].encap pauseSent:count 0
attr title "pause sent, count"
scalar _5xta0_mac_assignment.server.eth[0].encap pauseSent:sum 0
attr title "pause sent, sum"
scalar _5xta0_mac_assignment.server.eth[0].encap decapPk:count 0
attr interpolationmode none
attr source decapPk
attr title "packets decapsulated, count"
scalar _5xta0_mac_assignment.server.eth[0].encap decapPk:sum(packetBytes) 0
attr interpolationmode none
attr source decapPk
attr title "packets decapsulated, sum(packetBytes)"
scalar _5xta0_mac_assignment.server.eth[0].encap encapPk:count 0
attr interpolationmode none
attr source encapPk
attr title "packets encapsulated, count"
scalar _5xta0_mac_assignment.server.eth[0].encap encapPk:sum(packetBytes) 0
attr interpolationmode none
attr source encapPk
attr title "packets encapsulated, sum(packetBytes)"
scalar _5xta0_mac_assignment.server.eth[1].mac.queue packetPopped:count 0
attr interpolationmode none
attr title "packet popped, count"
scalar _5xta0_mac_assignment.server.eth[1].mac.queue packetPopped:sum(packetBytes) 0
attr interpolationmode none
attr title "packet popped, sum(packetBytes)"
statistic _5xta0_mac_assignment.server.eth[1].mac.queue queueingTime:histogram
field count 0
field mean -nan
field stddev -nan
field min -nan
field max -nan
field sum 0
field sqrsum 0
attr interpolationmode none
attr source queueingTime(packetPopped)
attr title "queueing times, histogram"
attr unit s
bin	-inf	0
bin	0	0
bin	1	0
scalar _5xta0_mac_assignment.server.eth[1].mac.queue queueLength:max -nan
attr interpolationmode sample-hold
attr source "count(packetPushed) - count(packetPopped) - count(packetRemoved) - count(packetDropped)"
attr title "queue length, max"
scalar _5xta0_mac_assignment.server.eth[1].mac.queue queueLength:timeavg -nan
attr interpolationmode sample-hold
attr source "count(packetPushed) - count(packetPopped) - count(packetRemoved) - count(packetDropped)"
attr title "queue length, timeavg"
scalar _5xta0_mac_assignment.server.eth[1].mac.queue packetPushed:count 0
attr interpolationmode none
attr title "packet pushed, count"
scalar _5xta0_mac_assignment.server.eth[1].mac.queue packetPushed:sum(packetBytes) 0
attr interpolationmode none
attr title "packet pushed, sum(packetBytes)"
scalar _5xta0_mac_assignment.server.eth[1].mac.queue packetDropQueueOverflow:count 0
attr interpolationmode none
attr source packetDropReasonIsQueueOverflow(packetDropped)
attr title "packet drops: queue overflow, count"
scalar _5xta0_mac_assignment.server.eth[1].mac.queue packetDropQueueOverflow:sum(packetBytes) 0
attr interpolationmode none
attr source packetDropReasonIsQueueOverflow(packetDropped)
attr title "packet drops: queue overflow, sum(packetBytes)"
scalar _5xta0_mac_assignment.server.eth[1].mac.queue packetRemoved:count 0
attr interpolationmode none
attr title "packets removed, count"
scalar _5xta0_mac_assignment.server.eth[1].mac.queue packetRemoved:sum(packetBytes) 0
attr interpolationmode none
attr title "packets removed, sum(packetBytes)"
scalar _5xta0_mac_assignment.server.eth[1].mac "simulated time" 0.022420235828
scalar _5xta0_mac_assignment.server.eth[1].mac full-duplex 1
scalar _5xta0_mac_assignment.server.eth[1].mac "frames/sec sent" 0
scalar _5xta0_mac_assignment.server.eth[1].mac "frames/sec rcvd" 0
scalar _5xta0_mac_assignment.server.eth[1].mac "bits/sec sent" 0
scalar _5xta0_mac_assignment.server.eth[1].mac "bits/sec rcvd" 0
scalar _5xta0_mac_assignment.server.eth[1].mac "rx channel idle (%)" 100
scalar _5xta0_mac_assignment.server.eth[1].mac "rx channel utilization (%)" 0
scalar _5xta0_mac_assignment.server.eth[1].mac rxPausePkUnits:count 0
attr interpolationmode none
attr title "pause units received, count"
scalar _5xta0_mac_assignment.server.eth[1].mac rxPausePkUnits:sum 0
attr interpolationmode none
attr title "pause units received, sum"
scalar _5xta0_mac_assignment.server.eth[1].mac txPausePkUnits:count 0
attr interpolationmode none
attr title "pause units sent, count"
scalar _5xta0_mac_assignment.server.eth[1].mac txPausePkUnits:sum 0
attr interpolationmode none
attr title "pause units sent, sum"
scalar _5xta0_mac_assignment.server.eth[1].mac rxPkOk:count 0
attr interpolationmode none
attr source rxPkOk
attr title "packets received OK, count"
scalar _5xta0_mac_assignment.server.eth[1].mac rxPkOk:sum(packetBytes) 0
attr interpolationmode none
attr source rxPkOk
attr title "packets received OK, sum(packetBytes)"
scalar _5xta0_mac_assignment.server.eth[1].mac txPk:count 0
attr interpolationmode none
attr source packetSentToLower
attr title "packets transmitted, count"
scalar _5xta0_mac_assignment.server.eth[1].mac txPk:sum(packetBytes) 0
attr interpolationmode none
attr source packetSentToLower
attr title "packets transmitted, sum(packetBytes)"
scalar _5xta0_mac_assignment.server.eth[1].mac packetReceivedFromUpper:count 0
attr interpolationmode none
attr source packetReceivedFromUpper
attr title "packet bytes from higher layer, count"
scalar _5xta0_mac_assignment.server.eth[1].mac packetReceivedFromUpper:sum(packetBytes) 0
attr interpolationmode none
attr source packetReceivedFromUpper
attr title "packet bytes from higher layer, sum(packetBytes)"
scalar _5xta0_mac_assignment.server.eth[1].mac passedUpPk:count 0
attr interpolationmode none
attr source packetSentToUpper
attr title "packets passed to higher layer, count"
scalar _5xta0_mac_assignment.server.eth[1].mac passedUpPk:sum(packetBytes) 0
attr interpolationmode none
attr source packetSentToUpper
attr title "packets passed to higher layer, sum(packetBytes)"
scalar _5xta0_mac_assignment.server.eth[1].mac packetDropIncorrectlyReceived:count 0
attr interpolationmode none
attr source packetDropReasonIsIncorrectlyReceived(packetDropped)
attr title "packet drop: incorrectly received, count"
scalar _5xta0_mac_assignment.server.eth[1].mac packetDropIncorrectlyReceived:sum(packetBytes) 0
attr interpolationmode none
attr source packetDropReasonIsIncorrectlyReceived(packetDropped)
attr title "packet drop: incorrectly received, sum(packetBytes)"
scalar _5xta0_mac_assignment.server.eth[1].mac packetDropInterfaceDown:count 0
attr interpolationmode none
attr source packetDropReasonIsInterfaceDown(packetDropped)
attr title "packet drop: interface down, count"
scalar _5xta0_mac_assignment.server.eth[1].mac packetDropInterfaceDown:sum(packetBytes) 0
attr interpolationmode none
attr source packetDropReasonIsInterfaceDown(packetDropped)
attr title "packet drop: interface down, sum(packetBytes)"
scalar _5xta0_mac_assignment.server.eth[1].mac packetDropNotAddressedToUs:count 0
attr interpolationmode none
attr source packetDropReasonIsNotAddressedToUs(packetDropped)
attr title "packet drop: not addressed to us, count"
scalar _5xta0_mac_assignment.server.eth[1].mac packetDropNotAddressedToUs:sum(packetBytes) 0
attr interpolationmode none
attr source packetDropReasonIsNotAddressedToUs(packetDropped)
attr title "packet drop: not addressed to us, sum(packetBytes)"
scalar _5xta0_mac_assignment.server.eth[1].encap pauseSent:count 0
attr title "pause sent, count"
scalar _5xta0_mac_assignment.server.eth[1].encap pauseSent:sum 0
attr title "pause sent, sum"
scalar _5xta0_mac_assignment.server.eth[1].encap decapPk:count 0
attr interpolationmode none
attr source decapPk
attr title "packets decapsulated, count"
scalar _5xta0_mac_assignment.server.eth[1].encap decapPk:sum(packetBytes) 0
attr interpolationmode none
attr source decapPk
attr title "packets decapsulated, sum(packetBytes)"
scalar _5xta0_mac_assignment.server.eth[1].encap encapPk:count 0
attr interpolationmode none
attr source encapPk
attr title "packets encapsulated, count"
scalar _5xta0_mac_assignment.server.eth[1].encap encapPk:sum(packetBytes) 0
attr interpolationmode none
attr source encapPk
attr title "packets encapsulated, sum(packetBytes)"
scalar _5xta0_mac_assignment.server.eth[2].mac.queue packetPopped:count 0
attr interpolationmode none
attr title "packet popped, count"
scalar _5xta0_mac_assignment.server.eth[2].mac.queue packetPopped:sum(packetBytes) 0
attr interpolationmode none
attr title "packet popped, sum(packetBytes)"
statistic _5xta0_mac_assignment.server.eth[2].mac.queue queueingTime:histogram
field count 0
field mean -nan
field stddev -nan
field min -nan
field max -nan
field sum 0
field sqrsum 0
attr interpolationmode none
attr source queueingTime(packetPopped)
attr title "queueing times, histogram"
attr unit s
bin	-inf	0
bin	0	0
bin	1	0
scalar _5xta0_mac_assignment.server.eth[2].mac.queue queueLength:max -nan
attr interpolationmode sample-hold
attr source "count(packetPushed) - count(packetPopped) - count(packetRemoved) - count(packetDropped)"
attr title "queue length, max"
scalar _5xta0_mac_assignment.server.eth[2].mac.queue queueLength:timeavg -nan
attr interpolationmode sample-hold
attr source "count(packetPushed) - count(packetPopped) - count(packetRemoved) - count(packetDropped)"
attr title "queue length, timeavg"
scalar _5xta0_mac_assignment.server.eth[2].mac.queue packetPushed:count 0
attr interpolationmode none
attr title "packet pushed, count"
scalar _5xta0_mac_assignment.server.eth[2].mac.queue packetPushed:sum(packetBytes) 0
attr interpolationmode none
attr title "packet pushed, sum(packetBytes)"
scalar _5xta0_mac_assignment.server.eth[2].mac.queue packetDropQueueOverflow:count 0
attr interpolationmode none
attr source packetDropReasonIsQueueOverflow(packetDropped)
attr title "packet drops: queue overflow, count"
scalar _5xta0_mac_assignment.server.eth[2].mac.queue packetDropQueueOverflow:sum(packetBytes) 0
attr interpolationmode none
attr source packetDropReasonIsQueueOverflow(packetDropped)
attr title "packet drops: queue overflow, sum(packetBytes)"
scalar _5xta0_mac_assignment.server.eth[2].mac.queue packetRemoved:count 0
attr interpolationmode none
attr title "packets removed, count"
scalar _5xta0_mac_assignment.server.eth[2].mac.queue packetRemoved:sum(packetBytes) 0
attr interpolationmode none
attr title "packets removed, sum(packetBytes)"
scalar _5xta0_mac_assignment.server.eth[2].mac "simulated time" 0.022420235828
scalar _5xta0_mac_assignment.server.eth[2].mac full-duplex 1
scalar _5xta0_mac_assignment.server.eth[2].mac "frames/sec sent" 0
scalar _5xta0_mac_assignment.server.eth[2].mac "frames/sec rcvd" 0
scalar _5xta0_mac_assignment.server.eth[2].mac "bits/sec sent" 0
scalar _5xta0_mac_assignment.server.eth[2].mac "bits/sec rcvd" 0
scalar _5xta0_mac_assignment.server.eth[2].mac "rx channel idle (%)" 100
scalar _5xta0_mac_assignment.server.eth[2].mac "rx channel utilization (%)" 0
scalar _5xta0_mac_assignment.server.eth[2].mac rxPausePkUnits:count 0
attr interpolationmode none
attr title "pause units received, count"
scalar _5xta0_mac_assignment.server.eth[2].mac rxPausePkUnits:sum 0
attr interpolationmode none
attr title "pause units received, sum"
scalar _5xta0_mac_assignment.server.eth[2].mac txPausePkUnits:count 0
attr interpolationmode none
attr title "pause units sent, count"
scalar _5xta0_mac_assignment.server.eth[2].mac txPausePkUnits:sum 0
attr interpolationmode none
attr title "pause units sent, sum"
scalar _5xta0_mac_assignment.server.eth[2].mac rxPkOk:count 0
attr interpolationmode none
attr source rxPkOk
attr title "packets received OK, count"
scalar _5xta0_mac_assignment.server.eth[2].mac rxPkOk:sum(packetBytes) 0
attr interpolationmode none
attr source rxPkOk
attr title "packets received OK, sum(packetBytes)"
scalar _5xta0_mac_assignment.server.eth[2].mac txPk:count 0
attr interpolationmode none
attr source packetSentToLower
attr title "packets transmitted, count"
scalar _5xta0_mac_assignment.server.eth[2].mac txPk:sum(packetBytes) 0
attr interpolationmode none
attr source packetSentToLower
attr title "packets transmitted, sum(packetBytes)"
scalar _5xta0_mac_assignment.server.eth[2].mac packetReceivedFromUpper:count 0
attr interpolationmode none
attr source packetReceivedFromUpper
attr title "packet bytes from higher layer, count"
scalar _5xta0_mac_assignment.server.eth[2].mac packetReceivedFromUpper:sum(packetBytes) 0
attr interpolationmode none
attr source packetReceivedFromUpper
attr title "packet bytes from higher layer, sum(packetBytes)"
scalar _5xta0_mac_assignment.server.eth[2].mac passedUpPk:count 0
attr interpolationmode none
attr source packetSentToUpper
attr title "packets passed to higher layer, count"
scalar _5xta0_mac_assignment.server.eth[2].mac passedUpPk:sum(packetBytes) 0
attr interpolationmode none
attr source packetSentToUpper
attr title "packets passed to higher layer, sum(packetBytes)"
scalar _5xta0_mac_assignment.server.eth[2].mac packetDropIncorrectlyReceived:count 0
attr interpolationmode none
attr source packetDropReasonIsIncorrectlyReceived(packetDropped)
attr title "packet drop: incorrectly received, count"
scalar _5xta0_mac_assignment.server.eth[2].mac packetDropIncorrectlyReceived:sum(packetBytes) 0
attr interpolationmode none
attr source packetDropReasonIsIncorrectlyReceived(packetDropped)
attr title "packet drop: incorrectly received, sum(packetBytes)"
scalar _5xta0_mac_assignment.server.eth[2].mac packetDropInterfaceDown:count 0
attr interpolationmode none
attr source packetDropReasonIsInterfaceDown(packetDropped)
attr title "packet drop: interface down, count"
scalar _5xta0_mac_assignment.server.eth[2].mac packetDropInterfaceDown:sum(packetBytes) 0
attr interpolationmode none
attr source packetDropReasonIsInterfaceDown(packetDropped)
attr title "packet drop: interface down, sum(packetBytes)"
scalar _5xta0_mac_assignment.server.eth[2].mac packetDropNotAddressedToUs:count 0
attr interpolationmode none
attr source packetDropReasonIsNotAddressedToUs(packetDropped)
attr title "packet drop: not addressed to us, count"
scalar _5xta0_mac_assignment.server.eth[2].mac packetDropNotAddressedToUs:sum(packetBytes) 0
attr interpolationmode none
attr source packetDropReasonIsNotAddressedToUs(packetDropped)
attr title "packet drop: not addressed to us, sum(packetBytes)"
scalar _5xta0_mac_assignment.server.eth[2].encap pauseSent:count 0
attr title "pause sent, count"
scalar _5xta0_mac_assignment.server.eth[2].encap pauseSent:sum 0
attr title "pause sent, sum"
scalar _5xta0_mac_assignment.server.eth[2].encap decapPk:count 0
attr interpolationmode none
attr source decapPk
attr title "packets decapsulated, count"
scalar _5xta0_mac_assignment.server.eth[2].encap decapPk:sum(packetBytes) 0
attr interpolationmode none
attr source decapPk
attr title "packets decapsulated, sum(packetBytes)"
scalar _5xta0_mac_assignment.server.eth[2].encap encapPk:count 0
attr interpolationmode none
attr source encapPk
attr title "packets encapsulated, count"
scalar _5xta0_mac_assignment.server.eth[2].encap encapPk:sum(packetBytes) 0
attr interpolationmode none
attr source encapPk
attr title "packets encapsulated, sum(packetBytes)"
scalar _5xta0_mac_assignment.server.eth[3].mac.queue packetPopped:count 0
attr interpolationmode none
attr title "packet popped, count"
scalar _5xta0_mac_assignment.server.eth[3].mac.queue packetPopped:sum(packetBytes) 0
attr interpolationmode none
attr title "packet popped, sum(packetBytes)"
statistic _5xta0_mac_assignment.server.eth[3].mac.queue queueingTime:histogram
field count 0
field mean -nan
field stddev -nan
field min -nan
field max -nan
field sum 0
field sqrsum 0
attr interpolationmode none
attr source queueingTime(packetPopped)
attr title "queueing times, histogram"
attr unit s
bin	-inf	0
bin	0	0
bin	1	0
scalar _5xta0_mac_assignment.server.eth[3].mac.queue queueLength:max -nan
attr interpolationmode sample-hold
attr source "count(packetPushed) - count(packetPopped) - count(packetRemoved) - count(packetDropped)"
attr title "queue length, max"
scalar _5xta0_mac_assignment.server.eth[3].mac.queue queueLength:timeavg -nan
attr interpolationmode sample-hold
attr source "count(packetPushed) - count(packetPopped) - count(packetRemoved) - count(packetDropped)"
attr title "queue length, timeavg"
scalar _5xta0_mac_assignment.server.eth[3].mac.queue packetPushed:count 0
attr interpolationmode none
attr title "packet pushed, count"
scalar _5xta0_mac_assignment.server.eth[3].mac.queue packetPushed:sum(packetBytes) 0
attr interpolationmode none
attr title "packet pushed, sum(packetBytes)"
scalar _5xta0_mac_assignment.server.eth[3].mac.queue packetDropQueueOverflow:count 0
attr interpolationmode none
attr source packetDropReasonIsQueueOverflow(packetDropped)
attr title "packet drops: queue overflow, count"
scalar _5xta0_mac_assignment.server.eth[3].mac.queue packetDropQueueOverflow:sum(packetBytes) 0
attr interpolationmode none
attr source packetDropReasonIsQueueOverflow(packetDropped)
attr title "packet drops: queue overflow, sum(packetBytes)"
scalar _5xta0_mac_assignment.server.eth[3].mac.queue packetRemoved:count 0
attr interpolationmode none
attr title "packets removed, count"
scalar _5xta0_mac_assignment.server.eth[3].mac.queue packetRemoved:sum(packetBytes) 0
attr interpolationmode none
attr title "packets removed, sum(packetBytes)"
scalar _5xta0_mac_assignment.server.eth[3].mac "simulated time" 0.022420235828
scalar _5xta0_mac_assignment.server.eth[3].mac full-duplex 1
scalar _5xta0_mac_assignment.server.eth[3].mac "frames/sec sent" 0
scalar _5xta0_mac_assignment.server.eth[3].mac "frames/sec rcvd" 0
scalar _5xta0_mac_assignment.server.eth[3].mac "bits/sec sent" 0
scalar _5xta0_mac_assignment.server.eth[3].mac "bits/sec rcvd" 0
scalar _5xta0_mac_assignment.server.eth[3].mac "rx channel idle (%)" 100
scalar _5xta0_mac_assignment.server.eth[3].mac "rx channel utilization (%)" 0
scalar _5xta0_mac_assignment.server.eth[3].mac rxPausePkUnits:count 0
attr interpolationmode none
attr title "pause units received, count"
scalar _5xta0_mac_assignment.server.eth[3].mac rxPausePkUnits:sum 0
attr interpolationmode none
attr title "pause units received, sum"
scalar _5xta0_mac_assignment.server.eth[3].mac txPausePkUnits:count 0
attr interpolationmode none
attr title "pause units sent, count"
scalar _5xta0_mac_assignment.server.eth[3].mac txPausePkUnits:sum 0
attr interpolationmode none
attr title "pause units sent, sum"
scalar _5xta0_mac_assignment.server.eth[3].mac rxPkOk:count 0
attr interpolationmode none
attr source rxPkOk
attr title "packets received OK, count"
scalar _5xta0_mac_assignment.server.eth[3].mac rxPkOk:sum(packetBytes) 0
attr interpolationmode none
attr source rxPkOk
attr title "packets received OK, sum(packetBytes)"
scalar _5xta0_mac_assignment.server.eth[3].mac txPk:count 0
attr interpolationmode none
attr source packetSentToLower
attr title "packets transmitted, count"
scalar _5xta0_mac_assignment.server.eth[3].mac txPk:sum(packetBytes) 0
attr interpolationmode none
attr source packetSentToLower
attr title "packets transmitted, sum(packetBytes)"
scalar _5xta0_mac_assignment.server.eth[3].mac packetReceivedFromUpper:count 0
attr interpolationmode none
attr source packetReceivedFromUpper
attr title "packet bytes from higher layer, count"
scalar _5xta0_mac_assignment.server.eth[3].mac packetReceivedFromUpper:sum(packetBytes) 0
attr interpolationmode none
attr source packetReceivedFromUpper
attr title "packet bytes from higher layer, sum(packetBytes)"
scalar _5xta0_mac_assignment.server.eth[3].mac passedUpPk:count 0
attr interpolationmode none
attr source packetSentToUpper
attr title "packets passed to higher layer, count"
scalar _5xta0_mac_assignment.server.eth[3].mac passedUpPk:sum(packetBytes) 0
attr interpolationmode none
attr source packetSentToUpper
attr title "packets passed to higher layer, sum(packetBytes)"
scalar _5xta0_mac_assignment.server.eth[3].mac packetDropIncorrectlyReceived:count 0
attr interpolationmode none
attr source packetDropReasonIsIncorrectlyReceived(packetDropped)
attr title "packet drop: incorrectly received, count"
scalar _5xta0_mac_assignment.server.eth[3].mac packetDropIncorrectlyReceived:sum(packetBytes) 0
attr interpolationmode none
attr source packetDropReasonIsIncorrectlyReceived(packetDropped)
attr title "packet drop: incorrectly received, sum(packetBytes)"
scalar _5xta0_mac_assignment.server.eth[3].mac packetDropInterfaceDown:count 0
attr interpolationmode none
attr source packetDropReasonIsInterfaceDown(packetDropped)
attr title "packet drop: interface down, count"
scalar _5xta0_mac_assignment.server.eth[3].mac packetDropInterfaceDown:sum(packetBytes) 0
attr interpolationmode none
attr source packetDropReasonIsInterfaceDown(packetDropped)
attr title "packet drop: interface down, sum(packetBytes)"
scalar _5xta0_mac_assignment.server.eth[3].mac packetDropNotAddressedToUs:count 0
attr interpolationmode none
attr source packetDropReasonIsNotAddressedToUs(packetDropped)
attr title "packet drop: not addressed to us, count"
scalar _5xta0_mac_assignment.server.eth[3].mac packetDropNotAddressedToUs:sum(packetBytes) 0
attr interpolationmode none
attr source packetDropReasonIsNotAddressedToUs(packetDropped)
attr title "packet drop: not addressed to us, sum(packetBytes)"
scalar _5xta0_mac_assignment.server.eth[3].encap pauseSent:count 0
attr title "pause sent, count"
scalar _5xta0_mac_assignment.server.eth[3].encap pauseSent:sum 0
attr title "pause sent, sum"
scalar _5xta0_mac_assignment.server.eth[3].encap decapPk:count 0
attr interpolationmode none
attr source decapPk
attr title "packets decapsulated, count"
scalar _5xta0_mac_assignment.server.eth[3].encap decapPk:sum(packetBytes) 0
attr interpolationmode none
attr source decapPk
attr title "packets decapsulated, sum(packetBytes)"
scalar _5xta0_mac_assignment.server.eth[3].encap encapPk:count 0
attr interpolationmode none
attr source encapPk
attr title "packets encapsulated, count"
scalar _5xta0_mac_assignment.server.eth[3].encap encapPk:sum(packetBytes) 0
attr interpolationmode none
attr source encapPk
attr title "packets encapsulated, sum(packetBytes)"
scalar _5xta0_mac_assignment.server.eth[4].mac.queue packetPopped:count 0
attr interpolationmode none
attr title "packet popped, count"
scalar _5xta0_mac_assignment.server.eth[4].mac.queue packetPopped:sum(packetBytes) 0
attr interpolationmode none
attr title "packet popped, sum(packetBytes)"
statistic _5xta0_mac_assignment.server.eth[4].mac.queue queueingTime:histogram
field count 0
field mean -nan
field stddev -nan
field min -nan
field max -nan
field sum 0
field sqrsum 0
attr interpolationmode none
attr source queueingTime(packetPopped)
attr title "queueing times, histogram"
attr unit s
bin	-inf	0
bin	0	0
bin	1	0
scalar _5xta0_mac_assignment.server.eth[4].mac.queue queueLength:max -nan
attr interpolationmode sample-hold
attr source "count(packetPushed) - count(packetPopped) - count(packetRemoved) - count(packetDropped)"
attr title "queue length, max"
scalar _5xta0_mac_assignment.server.eth[4].mac.queue queueLength:timeavg -nan
attr interpolationmode sample-hold
attr source "count(packetPushed) - count(packetPopped) - count(packetRemoved) - count(packetDropped)"
attr title "queue length, timeavg"
scalar _5xta0_mac_assignment.server.eth[4].mac.queue packetPushed:count 0
attr interpolationmode none
attr title "packet pushed, count"
scalar _5xta0_mac_assignment.server.eth[4].mac.queue packetPushed:sum(packetBytes) 0
attr interpolationmode none
attr title "packet pushed, sum(packetBytes)"
scalar _5xta0_mac_assignment.server.eth[4].mac.queue packetDropQueueOverflow:count 0
attr interpolationmode none
attr source packetDropReasonIsQueueOverflow(packetDropped)
attr title "packet drops: queue overflow, count"
scalar _5xta0_mac_assignment.server.eth[4].mac.queue packetDropQueueOverflow:sum(packetBytes) 0
attr interpolationmode none
attr source packetDropReasonIsQueueOverflow(packetDropped)
attr title "packet drops: queue overflow, sum(packetBytes)"
scalar _5xta0_mac_assignment.server.eth[4].mac.queue packetRemoved:count 0
attr interpolationmode none
attr title "packets removed, count"
scalar _5xta0_mac_assignment.server.eth[4].mac.queue packetRemoved:sum(packetBytes) 0
attr interpolationmode none
attr title "packets removed, sum(packetBytes)"
scalar _5xta0_mac_assignment.server.eth[4].mac "simulated time" 0.022420235828
scalar _5xta0_mac_assignment.server.eth[4].mac full-duplex 1
scalar _5xta0_mac_assignment.server.eth[4].mac "frames/sec sent" 0
scalar _5xta0_mac_assignment.server.eth[4].mac "frames/sec rcvd" 0
scalar _5xta0_mac_assignment.server.eth[4].mac "bits/sec sent" 0
scalar _5xta0_mac_assignment.server.eth[4].mac "bits/sec rcvd" 0
scalar _5xta0_mac_assignment.server.eth[4].mac "rx channel idle (%)" 100
scalar _5xta0_mac_assignment.server.eth[4].mac "rx channel utilization (%)" 0
scalar _5xta0_mac_assignment.server.eth[4].mac rxPausePkUnits:count 0
attr interpolationmode none
attr title "pause units received, count"
scalar _5xta0_mac_assignment.server.eth[4].mac rxPausePkUnits:sum 0
attr interpolationmode none
attr title "pause units received, sum"
scalar _5xta0_mac_assignment.server.eth[4].mac txPausePkUnits:count 0
attr interpolationmode none
attr title "pause units sent, count"
scalar _5xta0_mac_assignment.server.eth[4].mac txPausePkUnits:sum 0
attr interpolationmode none
attr title "pause units sent, sum"
scalar _5xta0_mac_assignment.server.eth[4].mac rxPkOk:count 0
attr interpolationmode none
attr source rxPkOk
attr title "packets received OK, count"
scalar _5xta0_mac_assignment.server.eth[4].mac rxPkOk:sum(packetBytes) 0
attr interpolationmode none
attr source rxPkOk
attr title "packets received OK, sum(packetBytes)"
scalar _5xta0_mac_assignment.server.eth[4].mac txPk:count 0
attr interpolationmode none
attr source packetSentToLower
attr title "packets transmitted, count"
scalar _5xta0_mac_assignment.server.eth[4].mac txPk:sum(packetBytes) 0
attr interpolationmode none
attr source packetSentToLower
attr title "packets transmitted, sum(packetBytes)"
scalar _5xta0_mac_assignment.server.eth[4].mac packetReceivedFromUpper:count 0
attr interpolationmode none
attr source packetReceivedFromUpper
attr title "packet bytes from higher layer, count"
scalar _5xta0_mac_assignment.server.eth[4].mac packetReceivedFromUpper:sum(packetBytes) 0
attr interpolationmode none
attr source packetReceivedFromUpper
attr title "packet bytes from higher layer, sum(packetBytes)"
scalar _5xta0_mac_assignment.server.eth[4].mac passedUpPk:count 0
attr interpolationmode none
attr source packetSentToUpper
attr title "packets passed to higher layer, count"
scalar _5xta0_mac_assignment.server.eth[4].mac passedUpPk:sum(packetBytes) 0
attr interpolationmode none
attr source packetSentToUpper
attr title "packets passed to higher layer, sum(packetBytes)"
scalar _5xta0_mac_assignment.server.eth[4].mac packetDropIncorrectlyReceived:count 0
attr interpolationmode none
attr source packetDropReasonIsIncorrectlyReceived(packetDropped)
attr title "packet drop: incorrectly received, count"
scalar _5xta0_mac_assignment.server.eth[4].mac packetDropIncorrectlyReceived:sum(packetBytes) 0
attr interpolationmode none
attr source packetDropReasonIsIncorrectlyReceived(packetDropped)
attr title "packet drop: incorrectly received, sum(packetBytes)"
scalar _5xta0_mac_assignment.server.eth[4].mac packetDropInterfaceDown:count 0
attr interpolationmode none
attr source packetDropReasonIsInterfaceDown(packetDropped)
attr title "packet drop: interface down, count"
scalar _5xta0_mac_assignment.server.eth[4].mac packetDropInterfaceDown:sum(packetBytes) 0
attr interpolationmode none
attr source packetDropReasonIsInterfaceDown(packetDropped)
attr title "packet drop: interface down, sum(packetBytes)"
scalar _5xta0_mac_assignment.server.eth[4].mac packetDropNotAddressedToUs:count 0
attr interpolationmode none
attr source packetDropReasonIsNotAddressedToUs(packetDropped)
attr title "packet drop: not addressed to us, count"
scalar _5xta0_mac_assignment.server.eth[4].mac packetDropNotAddressedToUs:sum(packetBytes) 0
attr interpolationmode none
attr source packetDropReasonIsNotAddressedToUs(packetDropped)
attr title "packet drop: not addressed to us, sum(packetBytes)"
scalar _5xta0_mac_assignment.server.eth[4].encap pauseSent:count 0
attr title "pause sent, count"
scalar _5xta0_mac_assignment.server.eth[4].encap pauseSent:sum 0
attr title "pause sent, sum"
scalar _5xta0_mac_assignment.server.eth[4].encap decapPk:count 0
attr interpolationmode none
attr source decapPk
attr title "packets decapsulated, count"
scalar _5xta0_mac_assignment.server.eth[4].encap decapPk:sum(packetBytes) 0
attr interpolationmode none
attr source decapPk
attr title "packets decapsulated, sum(packetBytes)"
scalar _5xta0_mac_assignment.server.eth[4].encap encapPk:count 0
attr interpolationmode none
attr source encapPk
attr title "packets encapsulated, count"
scalar _5xta0_mac_assignment.server.eth[4].encap encapPk:sum(packetBytes) 0
attr interpolationmode none
attr source encapPk
attr title "packets encapsulated, sum(packetBytes)"
scalar _5xta0_mac_assignment.server.eth[5].mac.queue packetPopped:count 0
attr interpolationmode none
attr title "packet popped, count"
scalar _5xta0_mac_assignment.server.eth[5].mac.queue packetPopped:sum(packetBytes) 0
attr interpolationmode none
attr title "packet popped, sum(packetBytes)"
statistic _5xta0_mac_assignment.server.eth[5].mac.queue queueingTime:histogram
field count 0
field mean -nan
field stddev -nan
field min -nan
field max -nan
field sum 0
field sqrsum 0
attr interpolationmode none
attr source queueingTime(packetPopped)
attr title "queueing times, histogram"
attr unit s
bin	-inf	0
bin	0	0
bin	1	0
scalar _5xta0_mac_assignment.server.eth[5].mac.queue queueLength:max -nan
attr interpolationmode sample-hold
attr source "count(packetPushed) - count(packetPopped) - count(packetRemoved) - count(packetDropped)"
attr title "queue length, max"
scalar _5xta0_mac_assignment.server.eth[5].mac.queue queueLength:timeavg -nan
attr interpolationmode sample-hold
attr source "count(packetPushed) - count(packetPopped) - count(packetRemoved) - count(packetDropped)"
attr title "queue length, timeavg"
scalar _5xta0_mac_assignment.server.eth[5].mac.queue packetPushed:count 0
attr interpolationmode none
attr title "packet pushed, count"
scalar _5xta0_mac_assignment.server.eth[5].mac.queue packetPushed:sum(packetBytes) 0
attr interpolationmode none
attr title "packet pushed, sum(packetBytes)"
scalar _5xta0_mac_assignment.server.eth[5].mac.queue packetDropQueueOverflow:count 0
attr interpolationmode none
attr source packetDropReasonIsQueueOverflow(packetDropped)
attr title "packet drops: queue overflow, count"
scalar _5xta0_mac_assignment.server.eth[5].mac.queue packetDropQueueOverflow:sum(packetBytes) 0
attr interpolationmode none
attr source packetDropReasonIsQueueOverflow(packetDropped)
attr title "packet drops: queue overflow, sum(packetBytes)"
scalar _5xta0_mac_assignment.server.eth[5].mac.queue packetRemoved:count 0
attr interpolationmode none
attr title "packets removed, count"
scalar _5xta0_mac_assignment.server.eth[5].mac.queue packetRemoved:sum(packetBytes) 0
attr interpolationmode none
attr title "packets removed, sum(packetBytes)"
scalar _5xta0_mac_assignment.server.eth[5].mac "simulated time" 0.022420235828
scalar _5xta0_mac_assignment.server.eth[5].mac full-duplex 1
scalar _5xta0_mac_assignment.server.eth[5].mac "frames/sec sent" 0
scalar _5xta0_mac_assignment.server.eth[5].mac "frames/sec rcvd" 0
scalar _5xta0_mac_assignment.server.eth[5].mac "bits/sec sent" 0
scalar _5xta0_mac_assignment.server.eth[5].mac "bits/sec rcvd" 0
scalar _5xta0_mac_assignment.server.eth[5].mac "rx channel idle (%)" 100
scalar _5xta0_mac_assignment.server.eth[5].mac "rx channel utilization (%)" 0
scalar _5xta0_mac_assignment.server.eth[5].mac rxPausePkUnits:count 0
attr interpolationmode none
attr title "pause units received, count"
scalar _5xta0_mac_assignment.server.eth[5].mac rxPausePkUnits:sum 0
attr interpolationmode none
attr title "pause units received, sum"
scalar _5xta0_mac_assignment.server.eth[5].mac txPausePkUnits:count 0
attr interpolationmode none
attr title "pause units sent, count"
scalar _5xta0_mac_assignment.server.eth[5].mac txPausePkUnits:sum 0
attr interpolationmode none
attr title "pause units sent, sum"
scalar _5xta0_mac_assignment.server.eth[5].mac rxPkOk:count 0
attr interpolationmode none
attr source rxPkOk
attr title "packets received OK, count"
scalar _5xta0_mac_assignment.server.eth[5].mac rxPkOk:sum(packetBytes) 0
attr interpolationmode none
attr source rxPkOk
attr title "packets received OK, sum(packetBytes)"
scalar _5xta0_mac_assignment.server.eth[5].mac txPk:count 0
attr interpolationmode none
attr source packetSentToLower
attr title "packets transmitted, count"
scalar _5xta0_mac_assignment.server.eth[5].mac txPk:sum(packetBytes) 0
attr interpolationmode none
attr source packetSentToLower
attr title "packets transmitted, sum(packetBytes)"
scalar _5xta0_mac_assignment.server.eth[5].mac packetReceivedFromUpper:count 0
attr interpolationmode none
attr source packetReceivedFromUpper
attr title "packet bytes from higher layer, count"
scalar _5xta0_mac_assignment.server.eth[5].mac packetReceivedFromUpper:sum(packetBytes) 0
attr interpolationmode none
attr source packetReceivedFromUpper
attr title "packet bytes from higher layer, sum(packetBytes)"
scalar _5xta0_mac_assignment.server.eth[5].mac passedUpPk:count 0
attr interpolationmode none
attr source packetSentToUpper
attr title "packets passed to higher layer, count"
scalar _5xta0_mac_assignment.server.eth[5].mac passedUpPk:sum(packetBytes) 0
attr interpolationmode none
attr source packetSentToUpper
attr title "packets passed to higher layer, sum(packetBytes)"
scalar _5xta0_mac_assignment.server.eth[5].mac packetDropIncorrectlyReceived:count 0
attr interpolationmode none
attr source packetDropReasonIsIncorrectlyReceived(packetDropped)
attr title "packet drop: incorrectly received, count"
scalar _5xta0_mac_assignment.server.eth[5].mac packetDropIncorrectlyReceived:sum(packetBytes) 0
attr interpolationmode none
attr source packetDropReasonIsIncorrectlyReceived(packetDropped)
attr title "packet drop: incorrectly received, sum(packetBytes)"
scalar _5xta0_mac_assignment.server.eth[5].mac packetDropInterfaceDown:count 0
attr interpolationmode none
attr source packetDropReasonIsInterfaceDown(packetDropped)
attr title "packet drop: interface down, count"
scalar _5xta0_mac_assignment.server.eth[5].mac packetDropInterfaceDown:sum(packetBytes) 0
attr interpolationmode none
attr source packetDropReasonIsInterfaceDown(packetDropped)
attr title "packet drop: interface down, sum(packetBytes)"
scalar _5xta0_mac_assignment.server.eth[5].mac packetDropNotAddressedToUs:count 0
attr interpolationmode none
attr source packetDropReasonIsNotAddressedToUs(packetDropped)
attr title "packet drop: not addressed to us, count"
scalar _5xta0_mac_assignment.server.eth[5].mac packetDropNotAddressedToUs:sum(packetBytes) 0
attr interpolationmode none
attr source packetDropReasonIsNotAddressedToUs(packetDropped)
attr title "packet drop: not addressed to us, sum(packetBytes)"
scalar _5xta0_mac_assignment.server.eth[5].encap pauseSent:count 0
attr title "pause sent, count"
scalar _5xta0_mac_assignment.server.eth[5].encap pauseSent:sum 0
attr title "pause sent, sum"
scalar _5xta0_mac_assignment.server.eth[5].encap decapPk:count 0
attr interpolationmode none
attr source decapPk
attr title "packets decapsulated, count"
scalar _5xta0_mac_assignment.server.eth[5].encap decapPk:sum(packetBytes) 0
attr interpolationmode none
attr source decapPk
attr title "packets decapsulated, sum(packetBytes)"
scalar _5xta0_mac_assignment.server.eth[5].encap encapPk:count 0
attr interpolationmode none
attr source encapPk
attr title "packets encapsulated, count"
scalar _5xta0_mac_assignment.server.eth[5].encap encapPk:sum(packetBytes) 0
attr interpolationmode none
attr source encapPk
attr title "packets encapsulated, sum(packetBytes)"
scalar _5xta0_mac_assignment.server.eth[6].mac.queue packetPopped:count 0
attr interpolationmode none
attr title "packet popped, count"
scalar _5xta0_mac_assignment.server.eth[6].mac.queue packetPopped:sum(packetBytes) 0
attr interpolationmode none
attr title "packet popped, sum(packetBytes)"
statistic _5xta0_mac_assignment.server.eth[6].mac.queue queueingTime:histogram
field count 0
field mean -nan
field stddev -nan
field min -nan
field max -nan
field sum 0
field sqrsum 0
attr interpolationmode none
attr source queueingTime(packetPopped)
attr title "queueing times, histogram"
attr unit s
bin	-inf	0
bin	0	0
bin	1	0
scalar _5xta0_mac_assignment.server.eth[6].mac.queue queueLength:max -nan
attr interpolationmode sample-hold
attr source "count(packetPushed) - count(packetPopped) - count(packetRemoved) - count(packetDropped)"
attr title "queue length, max"
scalar _5xta0_mac_assignment.server.eth[6].mac.queue queueLength:timeavg -nan
attr interpolationmode sample-hold
attr source "count(packetPushed) - count(packetPopped) - count(packetRemoved) - count(packetDropped)"
attr title "queue length, timeavg"
scalar _5xta0_mac_assignment.server.eth[6].mac.queue packetPushed:count 0
attr interpolationmode none
attr title "packet pushed, count"
scalar _5xta0_mac_assignment.server.eth[6].mac.queue packetPushed:sum(packetBytes) 0
attr interpolationmode none
attr title "packet pushed, sum(packetBytes)"
scalar _5xta0_mac_assignment.server.eth[6].mac.queue packetDropQueueOverflow:count 0
attr interpolationmode none
attr source packetDropReasonIsQueueOverflow(packetDropped)
attr title "packet drops: queue overflow, count"
scalar _5xta0_mac_assignment.server.eth[6].mac.queue packetDropQueueOverflow:sum(packetBytes) 0
attr interpolationmode none
attr source packetDropReasonIsQueueOverflow(packetDropped)
attr title "packet drops: queue overflow, sum(packetBytes)"
scalar _5xta0_mac_assignment.server.eth[6].mac.queue packetRemoved:count 0
attr interpolationmode none
attr title "packets removed, count"
scalar _5xta0_mac_assignment.server.eth[6].mac.queue packetRemoved:sum(packetBytes) 0
attr interpolationmode none
attr title "packets removed, sum(packetBytes)"
scalar _5xta0_mac_assignment.server.eth[6].mac "simulated time" 0.022420235828
scalar _5xta0_mac_assignment.server.eth[6].mac full-duplex 1
scalar _5xta0_mac_assignment.server.eth[6].mac "frames/sec sent" 0
scalar _5xta0_mac_assignment.server.eth[6].mac "frames/sec rcvd" 0
scalar _5xta0_mac_assignment.server.eth[6].mac "bits/sec sent" 0
scalar _5xta0_mac_assignment.server.eth[6].mac "bits/sec rcvd" 0
scalar _5xta0_mac_assignment.server.eth[6].mac "rx channel idle (%)" 100
scalar _5xta0_mac_assignment.server.eth[6].mac "rx channel utilization (%)" 0
scalar _5xta0_mac_assignment.server.eth[6].mac rxPausePkUnits:count 0
attr interpolationmode none
attr title "pause units received, count"
scalar _5xta0_mac_assignment.server.eth[6].mac rxPausePkUnits:sum 0
attr interpolationmode none
attr title "pause units received, sum"
scalar _5xta0_mac_assignment.server.eth[6].mac txPausePkUnits:count 0
attr interpolationmode none
attr title "pause units sent, count"
scalar _5xta0_mac_assignment.server.eth[6].mac txPausePkUnits:sum 0
attr interpolationmode none
attr title "pause units sent, sum"
scalar _5xta0_mac_assignment.server.eth[6].mac rxPkOk:count 0
attr interpolationmode none
attr source rxPkOk
attr title "packets received OK, count"
scalar _5xta0_mac_assignment.server.eth[6].mac rxPkOk:sum(packetBytes) 0
attr interpolationmode none
attr source rxPkOk
attr title "packets received OK, sum(packetBytes)"
scalar _5xta0_mac_assignment.server.eth[6].mac txPk:count 0
attr interpolationmode none
attr source packetSentToLower
attr title "packets transmitted, count"
scalar _5xta0_mac_assignment.server.eth[6].mac txPk:sum(packetBytes) 0
attr interpolationmode none
attr source packetSentToLower
attr title "packets transmitted, sum(packetBytes)"
scalar _5xta0_mac_assignment.server.eth[6].mac packetReceivedFromUpper:count 0
attr interpolationmode none
attr source packetReceivedFromUpper
attr title "packet bytes from higher layer, count"
scalar _5xta0_mac_assignment.server.eth[6].mac packetReceivedFromUpper:sum(packetBytes) 0
attr interpolationmode none
attr source packetReceivedFromUpper
attr title "packet bytes from higher layer, sum(packetBytes)"
scalar _5xta0_mac_assignment.server.eth[6].mac passedUpPk:count 0
attr interpolationmode none
attr source packetSentToUpper
attr title "packets passed to higher layer, count"
scalar _5xta0_mac_assignment.server.eth[6].mac passedUpPk:sum(packetBytes) 0
attr interpolationmode none
attr source packetSentToUpper
attr title "packets passed to higher layer, sum(packetBytes)"
scalar _5xta0_mac_assignment.server.eth[6].mac packetDropIncorrectlyReceived:count 0
attr interpolationmode none
attr source packetDropReasonIsIncorrectlyReceived(packetDropped)
attr title "packet drop: incorrectly received, count"
scalar _5xta0_mac_assignment.server.eth[6].mac packetDropIncorrectlyReceived:sum(packetBytes) 0
attr interpolationmode none
attr source packetDropReasonIsIncorrectlyReceived(packetDropped)
attr title "packet drop: incorrectly received, sum(packetBytes)"
scalar _5xta0_mac_assignment.server.eth[6].mac packetDropInterfaceDown:count 0
attr interpolationmode none
attr source packetDropReasonIsInterfaceDown(packetDropped)
attr title "packet drop: interface down, count"
scalar _5xta0_mac_assignment.server.eth[6].mac packetDropInterfaceDown:sum(packetBytes) 0
attr interpolationmode none
attr source packetDropReasonIsInterfaceDown(packetDropped)
attr title "packet drop: interface down, sum(packetBytes)"
scalar _5xta0_mac_assignment.server.eth[6].mac packetDropNotAddressedToUs:count 0
attr interpolationmode none
attr source packetDropReasonIsNotAddressedToUs(packetDropped)
attr title "packet drop: not addressed to us, count"
scalar _5xta0_mac_assignment.server.eth[6].mac packetDropNotAddressedToUs:sum(packetBytes) 0
attr interpolationmode none
attr source packetDropReasonIsNotAddressedToUs(packetDropped)
attr title "packet drop: not addressed to us, sum(packetBytes)"
scalar _5xta0_mac_assignment.server.eth[6].encap pauseSent:count 0
attr title "pause sent, count"
scalar _5xta0_mac_assignment.server.eth[6].encap pauseSent:sum 0
attr title "pause sent, sum"
scalar _5xta0_mac_assignment.server.eth[6].encap decapPk:count 0
attr interpolationmode none
attr source decapPk
attr title "packets decapsulated, count"
scalar _5xta0_mac_assignment.server.eth[6].encap decapPk:sum(packetBytes) 0
attr interpolationmode none
attr source decapPk
attr title "packets decapsulated, sum(packetBytes)"
scalar _5xta0_mac_assignment.server.eth[6].encap encapPk:count 0
attr interpolationmode none
attr source encapPk
attr title "packets encapsulated, count"
scalar _5xta0_mac_assignment.server.eth[6].encap encapPk:sum(packetBytes) 0
attr interpolationmode none
attr source encapPk
attr title "packets encapsulated, sum(packetBytes)"
scalar _5xta0_mac_assignment.server.ipv4.ip packetDropAddressResolutionFailed:count 0
attr interpolationmode none
attr source packetDropReasonIsAddressResolutionFailed(packetDropped)
attr title "packet drop: address resolution failed, count"
scalar _5xta0_mac_assignment.server.ipv4.ip packetDropAddressResolutionFailed:sum(packetBytes) 0
attr interpolationmode none
attr source packetDropReasonIsAddressResolutionFailed(packetDropped)
attr title "packet drop: address resolution failed, sum(packetBytes)"
scalar _5xta0_mac_assignment.server.ipv4.ip packetDropHopLimitReached:count 0
attr interpolationmode none
attr source packetDropReasonIsHopLimitReached(packetDropped)
attr title "packet drop: hop limit reached, count"
scalar _5xta0_mac_assignment.server.ipv4.ip packetDropHopLimitReached:sum(packetBytes) 0
attr interpolationmode none
attr source packetDropReasonIsHopLimitReached(packetDropped)
attr title "packet drop: hop limit reached, sum(packetBytes)"
scalar _5xta0_mac_assignment.server.ipv4.ip packetDropForwardingDisabled:count 0
attr interpolationmode none
attr source packetDropReasonIsForwardingDisabled(packetDropped)
attr title "packet drop: forwarding disabled, count"
scalar _5xta0_mac_assignment.server.ipv4.ip packetDropForwardingDisabled:sum(packetBytes) 0
attr interpolationmode none
attr source packetDropReasonIsForwardingDisabled(packetDropped)
attr title "packet drop: forwarding disabled, sum(packetBytes)"
scalar _5xta0_mac_assignment.server.ipv4.ip packetDropNoInterfaceFound:count 0
attr interpolationmode none
attr source packetDropReasonIsNoInterfaceFound(packetDropped)
attr title "packet drop: no interface found, count"
scalar _5xta0_mac_assignment.server.ipv4.ip packetDropNoInterfaceFound:sum(packetBytes) 0
attr interpolationmode none
attr source packetDropReasonIsNoInterfaceFound(packetDropped)
attr title "packet drop: no interface found, sum(packetBytes)"
scalar _5xta0_mac_assignment.server.ipv4.ip packetDropNoRouteFound:count 0
attr interpolationmode none
attr source packetDropReasonIsNoRouteFound(packetDropped)
attr title "packet drop: no route found, count"
scalar _5xta0_mac_assignment.server.ipv4.ip packetDropNoRouteFound:sum(packetBytes) 0
attr interpolationmode none
attr source packetDropReasonIsNoRouteFound(packetDropped)
attr title "packet drop: no route found, sum(packetBytes)"
scalar _5xta0_mac_assignment.server.ipv4.ip packetDropUndefined:count 0
attr interpolationmode none
attr source packetDropReasonIsUndefined(packetDropped)
attr title "packet drop: undefined, count"
scalar _5xta0_mac_assignment.server.ipv4.ip packetDropUndefined:sum(packetBytes) 0
attr interpolationmode none
attr source packetDropReasonIsUndefined(packetDropped)
attr title "packet drop: undefined, sum(packetBytes)"
scalar _5xta0_mac_assignment.server.ipv4.arp arpResolutionFailed:count 0
attr title "ARP failed resolutions, count"
scalar _5xta0_mac_assignment.server.ipv4.arp arpResolutionCompleted:count 0
attr title "ARP completed resolutions, count"
scalar _5xta0_mac_assignment.server.ipv4.arp arpResolutionInitiated:count 0
attr title "ARP initiated resolutions, count"
scalar _5xta0_mac_assignment.server.ipv4.arp arpReplySent:count 0
attr source arpReplySent
attr title "ARP replies sent, count"
scalar _5xta0_mac_assignment.server.ipv4.arp arpReplySent:sum(packetBytes) 0
attr source arpReplySent
attr title "ARP replies sent, sum(packetBytes)"
scalar _5xta0_mac_assignment.server.ipv4.arp arpRequestSent:count 0
attr source arpRequestSent
attr title "ARP request sent, count"
scalar _5xta0_mac_assignment.server.ipv4.arp arpRequestSent:sum(packetBytes) 0
attr source arpRequestSent
attr title "ARP request sent, sum(packetBytes)"
scalar _5xta0_mac_assignment.server.udp packetReceived:count 0
attr interpolationmode none
attr source packetReceived
attr title "packets received, count"
scalar _5xta0_mac_assignment.server.udp packetReceived:sum(packetBytes) 0
attr interpolationmode none
attr source packetReceived
attr title "packets received, sum(packetBytes)"
scalar _5xta0_mac_assignment.server.udp packetSent:count 0
attr interpolationmode none
attr source packetSent
attr title "packets sent, count"
scalar _5xta0_mac_assignment.server.udp packetSent:sum(packetBytes) 0
attr interpolationmode none
attr source packetSent
attr title "packets sent, sum(packetBytes)"
scalar _5xta0_mac_assignment.server.udp passedUpPk:count 0
attr interpolationmode none
attr source packetSentToUpper
attr title "packets passed up, count"
scalar _5xta0_mac_assignment.server.udp droppedPkWrongPort:count 0
attr interpolationmode none
attr source packetDropReasonIsNoPortFound(packetDropped)
attr title "packets dropped (wrong port), count"
scalar _5xta0_mac_assignment.server.udp droppedPkBadChecksum:count 0
attr interpolationmode none
attr source packetDropReasonIsIncorrectlyReceived(packetDropped)
attr title "packets dropped (checksum error), count"
scalar _5xta0_mac_assignment.server.app[0] packetReceived:count 0
attr interpolationmode none
attr source packetReceived
attr title "packets received, count"
scalar _5xta0_mac_assignment.server.app[0] packetReceived:sum(packetBytes) 0
attr interpolationmode none
attr source packetReceived
attr title "packets received, sum(packetBytes)"
statistic _5xta0_mac_assignment.server.app[0] endToEndDelay:histogram
field count 0
field mean -nan
field stddev -nan
field min -nan
field max -nan
field sum 0
field sqrsum 0
attr interpolationmode none
attr source dataAge(packetReceived)
attr title "end-to-end delay, histogram"
attr unit s
bin	-inf	0
bin	0	0
bin	1	0
scalar _5xta0_mac_assignment.Cell7Node1.lo[0].lo rcvdPkFromHl:count 0
attr interpolationmode none
attr source packetReceivedFromUpper
attr title "packets received from higher layer, count"
scalar _5xta0_mac_assignment.Cell7Node1.lo[0].lo rcvdPkFromHl:sum(packetBytes) 0
attr interpolationmode none
attr source packetReceivedFromUpper
attr title "packets received from higher layer, sum(packetBytes)"
scalar _5xta0_mac_assignment.Cell7Node1.lo[0].lo passedUpPk:count 0
attr interpolationmode none
attr source packetSentToUpper
attr title "packets passed to higher layer, count"
scalar _5xta0_mac_assignment.Cell7Node1.lo[0].lo passedUpPk:sum(packetBytes) 0
attr interpolationmode none
attr source packetSentToUpper
attr title "packets passed to higher layer, sum(packetBytes)"
scalar _5xta0_mac_assignment.Cell7Node1.wlan[0].mac.queue packetPopped:count 0
attr interpolationmode none
attr title "packet popped, count"
scalar _5xta0_mac_assignment.Cell7Node1.wlan[0].mac.queue packetPopped:sum(packetBytes) 0
attr interpolationmode none
attr title "packet popped, sum(packetBytes)"
statistic _5xta0_mac_assignment.Cell7Node1.wlan[0].mac.queue queueingTime:histogram
field count 0
field mean -nan
field stddev -nan
field min -nan
field max -nan
field sum 0
field sqrsum 0
attr interpolationmode none
attr source queueingTime(packetPopped)
attr title "queueing times, histogram"
attr unit s
bin	-inf	0
bin	0	0
bin	1	0
scalar _5xta0_mac_assignment.Cell7Node1.wlan[0].mac.queue queueLength:max -nan
attr interpolationmode sample-hold
attr source "count(packetPushed) - count(packetPopped) - count(packetRemoved) - count(packetDropped)"
attr title "queue length, max"
scalar _5xta0_mac_assignment.Cell7Node1.wlan[0].mac.queue queueLength:timeavg -nan
attr interpolationmode sample-hold
attr source "count(packetPushed) - count(packetPopped) - count(packetRemoved) - count(packetDropped)"
attr title "queue length, timeavg"
scalar _5xta0_mac_assignment.Cell7Node1.wlan[0].mac.queue packetPushed:count 0
attr interpolationmode none
attr title "packet pushed, count"
scalar _5xta0_mac_assignment.Cell7Node1.wlan[0].mac.queue packetPushed:sum(packetBytes) 0
attr interpolationmode none
attr title "packet pushed, sum(packetBytes)"
scalar _5xta0_mac_assignment.Cell7Node1.wlan[0].mac.queue packetDropQueueOverflow:count 0
attr interpolationmode none
attr source packetDropReasonIsQueueOverflow(packetDropped)
attr title "packet drops: queue overflow, count"
scalar _5xta0_mac_assignment.Cell7Node1.wlan[0].mac.queue packetDropQueueOverflow:sum(packetBytes) 0
attr interpolationmode none
attr source packetDropReasonIsQueueOverflow(packetDropped)
attr title "packet drops: queue overflow, sum(packetBytes)"
scalar _5xta0_mac_assignment.Cell7Node1.wlan[0].mac.queue packetRemoved:count 0
attr interpolationmode none
attr title "packets removed, count"
scalar _5xta0_mac_assignment.Cell7Node1.wlan[0].mac.queue packetRemoved:sum(packetBytes) 0
attr interpolationmode none
attr title "packets removed, sum(packetBytes)"
scalar _5xta0_mac_assignment.Cell7Node1.wlan[0].mac packetDropIncorrectlyReceived:count 0
attr interpolationmode none
attr source packetDropReasonIsIncorrectlyReceived(packetDropped)
attr title "packet drop: incorrectly received, count"
scalar _5xta0_mac_assignment.Cell7Node1.wlan[0].mac packetDropIncorrectlyReceived:sum(packetBytes) 0
attr interpolationmode none
attr source packetDropReasonIsIncorrectlyReceived(packetDropped)
attr title "packet drop: incorrectly received, sum(packetBytes)"
scalar _5xta0_mac_assignment.Cell7Node1.wlan[0].mac packetDropNotAddressedToUs:count 0
attr interpolationmode none
attr source packetDropReasonIsNotAddressedToUs(packetDropped)
attr title "packet drop: not addressed to us, count"
scalar _5xta0_mac_assignment.Cell7Node1.wlan[0].mac packetDropNotAddressedToUs:sum(packetBytes) 0
attr interpolationmode none
attr source packetDropReasonIsNotAddressedToUs(packetDropped)
attr title "packet drop: not addressed to us, sum(packetBytes)"
scalar _5xta0_mac_assignment.Cell7Node1.wlan[0].radio radioMode:count 2
attr interpolationmode sample-hold
attr source radioModeChanged
attr title "Radio mode, count"
scalar _5xta0_mac_assignment.Cell7Node1.wlan[0].radio receptionState:count 0
attr interpolationmode sample-hold
attr source receptionStateChanged
attr title "Radio reception state, count"
scalar _5xta0_mac_assignment.Cell7Node1.wlan[0].radio transmissionState:count 0
attr interpolationmode sample-hold
attr source transmissionStateChanged
attr title "Radio transmission state, count"
statistic _5xta0_mac_assignment.Cell7Node1.wlan[0].radio minSnir:histogram
field count 0
field mean -nan
field stddev -nan
field min -nan
field max -nan
field sum 0
field sqrsum 0
attr source minimumSnir(packetSentToUpper)
attr title "Min SNIR, histogram"
bin	-inf	0
bin	0	0
bin	1	0
statistic _5xta0_mac_assignment.Cell7Node1.wlan[0].radio packetErrorRate:histogram
field count 0
field mean -nan
field stddev -nan
field min -nan
field max -nan
field sum 0
field sqrsum 0
attr source packetErrorRate(packetSentToUpper)
attr title "Packet error rate, histogram"
bin	-inf	0
bin	0	0
bin	1	0
statistic _5xta0_mac_assignment.Cell7Node1.wlan[0].radio bitErrorRate:histogram
field count 0
field mean -nan
field stddev -nan
field min -nan
field max -nan
field sum 0
field sqrsum 0
attr source bitErrorRate(packetSentToUpper)
attr title "Bit error rate, histogram"
bin	-inf	0
bin	0	0
bin	1	0
statistic _5xta0_mac_assignment.Cell7Node1.wlan[0].radio symbolErrorRate:histogram
field count 0
field mean -nan
field stddev -nan
field min -nan
field max -nan
field sum 0
field sqrsum 0
attr source symbolErrorRate(packetSentToUpper)
attr title "Symbol error rate, histogram"
bin	-inf	0
bin	0	0
bin	1	0
scalar _5xta0_mac_assignment.Cell7Node1.ipv4.ip packetDropAddressResolutionFailed:count 0
attr interpolationmode none
attr source packetDropReasonIsAddressResolutionFailed(packetDropped)
attr title "packet drop: address resolution failed, count"
scalar _5xta0_mac_assignment.Cell7Node1.ipv4.ip packetDropAddressResolutionFailed:sum(packetBytes) 0
attr interpolationmode none
attr source packetDropReasonIsAddressResolutionFailed(packetDropped)
attr title "packet drop: address resolution failed, sum(packetBytes)"
scalar _5xta0_mac_assignment.Cell7Node1.ipv4.ip packetDropHopLimitReached:count 0
attr interpolationmode none
attr source packetDropReasonIsHopLimitReached(packetDropped)
attr title "packet drop: hop limit reached, count"
scalar _5xta0_mac_assignment.Cell7Node1.ipv4.ip packetDropHopLimitReached:sum(packetBytes) 0
attr interpolationmode none
attr source packetDropReasonIsHopLimitReached(packetDropped)
attr title "packet drop: hop limit reached, sum(packetBytes)"
scalar _5xta0_mac_assignment.Cell7Node1.ipv4.ip packetDropForwardingDisabled:count 0
attr interpolationmode none
attr source packetDropReasonIsForwardingDisabled(packetDropped)
attr title "packet drop: forwarding disabled, count"
scalar _5xta0_mac_assignment.Cell7Node1.ipv4.ip packetDropForwardingDisabled:sum(packetBytes) 0
attr interpolationmode none
attr source packetDropReasonIsForwardingDisabled(packetDropped)
attr title "packet drop: forwarding disabled, sum(packetBytes)"
scalar _5xta0_mac_assignment.Cell7Node1.ipv4.ip packetDropNoInterfaceFound:count 0
attr interpolationmode none
attr source packetDropReasonIsNoInterfaceFound(packetDropped)
attr title "packet drop: no interface found, count"
scalar _5xta0_mac_assignment.Cell7Node1.ipv4.ip packetDropNoInterfaceFound:sum(packetBytes) 0
attr interpolationmode none
attr source packetDropReasonIsNoInterfaceFound(packetDropped)
attr title "packet drop: no interface found, sum(packetBytes)"
scalar _5xta0_mac_assignment.Cell7Node1.ipv4.ip packetDropNoRouteFound:count 1
attr interpolationmode none
attr source packetDropReasonIsNoRouteFound(packetDropped)
attr title "packet drop: no route found, count"
scalar _5xta0_mac_assignment.Cell7Node1.ipv4.ip packetDropNoRouteFound:sum(packetBytes) 1028
attr interpolationmode none
attr source packetDropReasonIsNoRouteFound(packetDropped)
attr title "packet drop: no route found, sum(packetBytes)"
scalar _5xta0_mac_assignment.Cell7Node1.ipv4.ip packetDropUndefined:count 0
attr interpolationmode none
attr source packetDropReasonIsUndefined(packetDropped)
attr title "packet drop: undefined, count"
scalar _5xta0_mac_assignment.Cell7Node1.ipv4.ip packetDropUndefined:sum(packetBytes) 0
attr interpolationmode none
attr source packetDropReasonIsUndefined(packetDropped)
attr title "packet drop: undefined, sum(packetBytes)"
scalar _5xta0_mac_assignment.Cell7Node1.ipv4.arp arpResolutionFailed:count 0
attr title "ARP failed resolutions, count"
scalar _5xta0_mac_assignment.Cell7Node1.ipv4.arp arpResolutionCompleted:count 0
attr title "ARP completed resolutions, count"
scalar _5xta0_mac_assignment.Cell7Node1.ipv4.arp arpResolutionInitiated:count 0
attr title "ARP initiated resolutions, count"
scalar _5xta0_mac_assignment.Cell7Node1.ipv4.arp arpReplySent:count 0
attr source arpReplySent
attr title "ARP replies sent, count"
scalar _5xta0_mac_assignment.Cell7Node1.ipv4.arp arpReplySent:sum(packetBytes) 0
attr source arpReplySent
attr title "ARP replies sent, sum(packetBytes)"
scalar _5xta0_mac_assignment.Cell7Node1.ipv4.arp arpRequestSent:count 0
attr source arpRequestSent
attr title "ARP request sent, count"
scalar _5xta0_mac_assignment.Cell7Node1.ipv4.arp arpRequestSent:sum(packetBytes) 0
attr source arpRequestSent
attr title "ARP request sent, sum(packetBytes)"
scalar _5xta0_mac_assignment.Cell7Node1.udp packetReceived:count 0
attr interpolationmode none
attr source packetReceived
attr title "packets received, count"
scalar _5xta0_mac_assignment.Cell7Node1.udp packetReceived:sum(packetBytes) 0
attr interpolationmode none
attr source packetReceived
attr title "packets received, sum(packetBytes)"
scalar _5xta0_mac_assignment.Cell7Node1.udp packetSent:count 1
attr interpolationmode none
attr source packetSent
attr title "packets sent, count"
scalar _5xta0_mac_assignment.Cell7Node1.udp packetSent:sum(packetBytes) 1008
attr interpolationmode none
attr source packetSent
attr title "packets sent, sum(packetBytes)"
scalar _5xta0_mac_assignment.Cell7Node1.udp passedUpPk:count 0
attr interpolationmode none
attr source packetSentToUpper
attr title "packets passed up, count"
scalar _5xta0_mac_assignment.Cell7Node1.udp droppedPkWrongPort:count 0
attr interpolationmode none
attr source packetDropReasonIsNoPortFound(packetDropped)
attr title "packets dropped (wrong port), count"
scalar _5xta0_mac_assignment.Cell7Node1.udp droppedPkBadChecksum:count 0
attr interpolationmode none
attr source packetDropReasonIsIncorrectlyReceived(packetDropped)
attr title "packets dropped (checksum error), count"
scalar _5xta0_mac_assignment.Cell7Node1.app[0] "packets sent" 1
scalar _5xta0_mac_assignment.Cell7Node1.app[0] "packets received" 0
scalar _5xta0_mac_assignment.Cell7Node1.app[0] packetReceived:count 0
attr interpolationmode none
attr source packetReceived
attr title "packets received, count"
scalar _5xta0_mac_assignment.Cell7Node1.app[0] packetReceived:sum(packetBytes) 0
attr interpolationmode none
attr source packetReceived
attr title "packets received, sum(packetBytes)"
statistic _5xta0_mac_assignment.Cell7Node1.app[0] rcvdPkLifetime:stats
field count 0
field mean -nan
field stddev -nan
field min -nan
field max -nan
field sum 0
field sqrsum 0
attr interpolationmode none
attr source dataAge(packetReceived)
attr title "received packet lifetime, stats"
attr unit s
scalar _5xta0_mac_assignment.Cell7Node1.app[0] packetSent:count 1
attr interpolationmode none
attr source packetSent
attr title "packets sent, count"
scalar _5xta0_mac_assignment.Cell7Node1.app[0] packetSent:sum(packetBytes) 1000
attr interpolationmode none
attr source packetSent
attr title "packets sent, sum(packetBytes)"
scalar _5xta0_mac_assignment.Cell7Node2.lo[0].lo rcvdPkFromHl:count 0
attr interpolationmode none
attr source packetReceivedFromUpper
attr title "packets received from higher layer, count"
scalar _5xta0_mac_assignment.Cell7Node2.lo[0].lo rcvdPkFromHl:sum(packetBytes) 0
attr interpolationmode none
attr source packetReceivedFromUpper
attr title "packets received from higher layer, sum(packetBytes)"
scalar _5xta0_mac_assignment.Cell7Node2.lo[0].lo passedUpPk:count 0
attr interpolationmode none
attr source packetSentToUpper
attr title "packets passed to higher layer, count"
scalar _5xta0_mac_assignment.Cell7Node2.lo[0].lo passedUpPk:sum(packetBytes) 0
attr interpolationmode none
attr source packetSentToUpper
attr title "packets passed to higher layer, sum(packetBytes)"
scalar _5xta0_mac_assignment.Cell7Node2.wlan[0].mac.queue packetPopped:count 0
attr interpolationmode none
attr title "packet popped, count"
scalar _5xta0_mac_assignment.Cell7Node2.wlan[0].mac.queue packetPopped:sum(packetBytes) 0
attr interpolationmode none
attr title "packet popped, sum(packetBytes)"
statistic _5xta0_mac_assignment.Cell7Node2.wlan[0].mac.queue queueingTime:histogram
field count 0
field mean -nan
field stddev -nan
field min -nan
field max -nan
field sum 0
field sqrsum 0
attr interpolationmode none
attr source queueingTime(packetPopped)
attr title "queueing times, histogram"
attr unit s
bin	-inf	0
bin	0	0
bin	1	0
scalar _5xta0_mac_assignment.Cell7Node2.wlan[0].mac.queue queueLength:max -nan
attr interpolationmode sample-hold
attr source "count(packetPushed) - count(packetPopped) - count(packetRemoved) - count(packetDropped)"
attr title "queue length, max"
scalar _5xta0_mac_assignment.Cell7Node2.wlan[0].mac.queue queueLength:timeavg -nan
attr interpolationmode sample-hold
attr source "count(packetPushed) - count(packetPopped) - count(packetRemoved) - count(packetDropped)"
attr title "queue length, timeavg"
scalar _5xta0_mac_assignment.Cell7Node2.wlan[0].mac.queue packetPushed:count 0
attr interpolationmode none
attr title "packet pushed, count"
scalar _5xta0_mac_assignment.Cell7Node2.wlan[0].mac.queue packetPushed:sum(packetBytes) 0
attr interpolationmode none
attr title "packet pushed, sum(packetBytes)"
scalar _5xta0_mac_assignment.Cell7Node2.wlan[0].mac.queue packetDropQueueOverflow:count 0
attr interpolationmode none
attr source packetDropReasonIsQueueOverflow(packetDropped)
attr title "packet drops: queue overflow, count"
scalar _5xta0_mac_assignment.Cell7Node2.wlan[0].mac.queue packetDropQueueOverflow:sum(packetBytes) 0
attr interpolationmode none
attr source packetDropReasonIsQueueOverflow(packetDropped)
attr title "packet drops: queue overflow, sum(packetBytes)"
scalar _5xta0_mac_assignment.Cell7Node2.wlan[0].mac.queue packetRemoved:count 0
attr interpolationmode none
attr title "packets removed, count"
scalar _5xta0_mac_assignment.Cell7Node2.wlan[0].mac.queue packetRemoved:sum(packetBytes) 0
attr interpolationmode none
attr title "packets removed, sum(packetBytes)"
scalar _5xta0_mac_assignment.Cell7Node2.wlan[0].mac packetDropIncorrectlyReceived:count 0
attr interpolationmode none
attr source packetDropReasonIsIncorrectlyReceived(packetDropped)
attr title "packet drop: incorrectly received, count"
scalar _5xta0_mac_assignment.Cell7Node2.wlan[0].mac packetDropIncorrectlyReceived:sum(packetBytes) 0
attr interpolationmode none
attr source packetDropReasonIsIncorrectlyReceived(packetDropped)
attr title "packet drop: incorrectly received, sum(packetBytes)"
scalar _5xta0_mac_assignment.Cell7Node2.wlan[0].mac packetDropNotAddressedToUs:count 0
attr interpolationmode none
attr source packetDropReasonIsNotAddressedToUs(packetDropped)
attr title "packet drop: not addressed to us, count"
scalar _5xta0_mac_assignment.Cell7Node2.wlan[0].mac packetDropNotAddressedToUs:sum(packetBytes) 0
attr interpolationmode none
attr source packetDropReasonIsNotAddressedToUs(packetDropped)
attr title "packet drop: not addressed to us, sum(packetBytes)"
scalar _5xta0_mac_assignment.Cell7Node2.wlan[0].radio radioMode:count 2
attr interpolationmode sample-hold
attr source radioModeChanged
attr title "Radio mode, count"
scalar _5xta0_mac_assignment.Cell7Node2.wlan[0].radio receptionState:count 0
attr interpolationmode sample-hold
attr source receptionStateChanged
attr title "Radio reception state, count"
scalar _5xta0_mac_assignment.Cell7Node2.wlan[0].radio transmissionState:count 0
attr interpolationmode sample-hold
attr source transmissionStateChanged
attr title "Radio transmission state, count"
statistic _5xta0_mac_assignment.Cell7Node2.wlan[0].radio minSnir:histogram
field count 0
field mean -nan
field stddev -nan
field min -nan
field max -nan
field sum 0
field sqrsum 0
attr source minimumSnir(packetSentToUpper)
attr title "Min SNIR, histogram"
bin	-inf	0
bin	0	0
bin	1	0
statistic _5xta0_mac_assignment.Cell7Node2.wlan[0].radio packetErrorRate:histogram
field count 0
field mean -nan
field stddev -nan
field min -nan
field max -nan
field sum 0
field sqrsum 0
attr source packetErrorRate(packetSentToUpper)
attr title "Packet error rate, histogram"
bin	-inf	0
bin	0	0
bin	1	0
statistic _5xta0_mac_assignment.Cell7Node2.wlan[0].radio bitErrorRate:histogram
field count 0
field mean -nan
field stddev -nan
field min -nan
field max -nan
field sum 0
field sqrsum 0
attr source bitErrorRate(packetSentToUpper)
attr title "Bit error rate, histogram"
bin	-inf	0
bin	0	0
bin	1	0
statistic _5xta0_mac_assignment.Cell7Node2.wlan[0].radio symbolErrorRate:histogram
field count 0
field mean -nan
field stddev -nan
field min -nan
field max -nan
field sum 0
field sqrsum 0
attr source symbolErrorRate(packetSentToUpper)
attr title "Symbol error rate, histogram"
bin	-inf	0
bin	0	0
bin	1	0
scalar _5xta0_mac_assignment.Cell7Node2.ipv4.ip packetDropAddressResolutionFailed:count 0
attr interpolationmode none
attr source packetDropReasonIsAddressResolutionFailed(packetDropped)
attr title "packet drop: address resolution failed, count"
scalar _5xta0_mac_assignment.Cell7Node2.ipv4.ip packetDropAddressResolutionFailed:sum(packetBytes) 0
attr interpolationmode none
attr source packetDropReasonIsAddressResolutionFailed(packetDropped)
attr title "packet drop: address resolution failed, sum(packetBytes)"
scalar _5xta0_mac_assignment.Cell7Node2.ipv4.ip packetDropHopLimitReached:count 0
attr interpolationmode none
attr source packetDropReasonIsHopLimitReached(packetDropped)
attr title "packet drop: hop limit reached, count"
scalar _5xta0_mac_assignment.Cell7Node2.ipv4.ip packetDropHopLimitReached:sum(packetBytes) 0
attr interpolationmode none
attr source packetDropReasonIsHopLimitReached(packetDropped)
attr title "packet drop: hop limit reached, sum(packetBytes)"
scalar _5xta0_mac_assignment.Cell7Node2.ipv4.ip packetDropForwardingDisabled:count 0
attr interpolationmode none
attr source packetDropReasonIsForwardingDisabled(packetDropped)
attr title "packet drop: forwarding disabled, count"
scalar _5xta0_mac_assignment.Cell7Node2.ipv4.ip packetDropForwardingDisabled:sum(packetBytes) 0
attr interpolationmode none
attr source packetDropReasonIsForwardingDisabled(packetDropped)
attr title "packet drop: forwarding disabled, sum(packetBytes)"
scalar _5xta0_mac_assignment.Cell7Node2.ipv4.ip packetDropNoInterfaceFound:count 0
attr interpolationmode none
attr source packetDropReasonIsNoInterfaceFound(packetDropped)
attr title "packet drop: no interface found, count"
scalar _5xta0_mac_assignment.Cell7Node2.ipv4.ip packetDropNoInterfaceFound:sum(packetBytes) 0
attr interpolationmode none
attr source packetDropReasonIsNoInterfaceFound(packetDropped)
attr title "packet drop: no interface found, sum(packetBytes)"
scalar _5xta0_mac_assignment.Cell7Node2.ipv4.ip packetDropNoRouteFound:count 0
attr interpolationmode none
attr source packetDropReasonIsNoRouteFound(packetDropped)
attr title "packet drop: no route found, count"
scalar _5xta0_mac_assignment.Cell7Node2.ipv4.ip packetDropNoRouteFound:sum(packetBytes) 0
attr interpolationmode none
attr source packetDropReasonIsNoRouteFound(packetDropped)
attr title "packet drop: no route found, sum(packetBytes)"
scalar _5xta0_mac_assignment.Cell7Node2.ipv4.ip packetDropUndefined:count 0
attr interpolationmode none
attr source packetDropReasonIsUndefined(packetDropped)
attr title "packet drop: undefined, count"
scalar _5xta0_mac_assignment.Cell7Node2.ipv4.ip packetDropUndefined:sum(packetBytes) 0
attr interpolationmode none
attr source packetDropReasonIsUndefined(packetDropped)
attr title "packet drop: undefined, sum(packetBytes)"
scalar _5xta0_mac_assignment.Cell7Node2.ipv4.arp arpResolutionFailed:count 0
attr title "ARP failed resolutions, count"
scalar _5xta0_mac_assignment.Cell7Node2.ipv4.arp arpResolutionCompleted:count 0
attr title "ARP completed resolutions, count"
scalar _5xta0_mac_assignment.Cell7Node2.ipv4.arp arpResolutionInitiated:count 0
attr title "ARP initiated resolutions, count"
scalar _5xta0_mac_assignment.Cell7Node2.ipv4.arp arpReplySent:count 0
attr source arpReplySent
attr title "ARP replies sent, count"
scalar _5xta0_mac_assignment.Cell7Node2.ipv4.arp arpReplySent:sum(packetBytes) 0
attr source arpReplySent
attr title "ARP replies sent, sum(packetBytes)"
scalar _5xta0_mac_assignment.Cell7Node2.ipv4.arp arpRequestSent:count 0
[...]
attr title "ARP replies sent, sum(packetBytes)"
scalar _5xta0_mac_assignment.Cell6.ipv4.arp arpRequestSent:count 0
attr source arpRequestSent
attr title "ARP request sent, count"
scalar _5xta0_mac_assignment.Cell6.ipv4.arp arpRequestSent:sum(packetBytes) 0
attr source arpRequestSent
attr title "ARP request sent, sum(packetBytes)"
scalar _5xta0_mac_assignment.Cell6.udp packetReceived:count 0
attr interpolationmode none
attr source packetReceived
attr title "packets received, count"
scalar _5xta0_mac_assignment.Cell6.udp packetReceived:sum(packetBytes) 0
attr interpolationmode none
attr source packetReceived
attr title "packets received, sum(packetBytes)"
scalar _5xta0_mac_assignment.Cell6.udp packetSent:count 0
attr interpolationmode none
attr source packetSent
attr title "packets sent, count"
scalar _5xta0_mac_assignment.Cell6.udp packetSent:sum(packetBytes) 0
attr interpolationmode none
attr source packetSent
attr title "packets sent, sum(packetBytes)"
scalar _5xta0_mac_assignment.Cell6.udp passedUpPk:count 0
attr interpolationmode none
attr source packetSentToUpper
attr title "packets passed up, count"
scalar _5xta0_mac_assignment.Cell6.udp droppedPkWrongPort:count 0
attr interpolationmode none
attr source packetDropReasonIsNoPortFound(packetDropped)
attr title "packets dropped (wrong port), count"
scalar _5xta0_mac_assignment.Cell6.udp droppedPkBadChecksum:count 0
attr interpolationmode none
attr source packetDropReasonIsIncorrectlyReceived(packetDropped)
attr title "packets dropped (checksum error), count"
scalar _5xta0_mac_assignment.Cell7.lo[0].lo rcvdPkFromHl:count 0
attr interpolationmode none
attr source packetReceivedFromUpper
attr title "packets received from higher layer, count"
scalar _5xta0_mac_assignment.Cell7.lo[0].lo rcvdPkFromHl:sum(packetBytes) 0
attr interpolationmode none
attr source packetReceivedFromUpper
attr title "packets received from higher layer, sum(packetBytes)"
scalar _5xta0_mac_assignment.Cell7.lo[0].lo passedUpPk:count 0
attr interpolationmode none
attr source packetSentToUpper
attr title "packets passed to higher layer, count"
scalar _5xta0_mac_assignment.Cell7.lo[0].lo passedUpPk:sum(packetBytes) 0
attr interpolationmode none
attr source packetSentToUpper
attr title "packets passed to higher layer, sum(packetBytes)"
scalar _5xta0_mac_assignment.Cell7.wlan[0].mac.queue packetPopped:count 0
attr interpolationmode none
attr title "packet popped, count"
scalar _5xta0_mac_assignment.Cell7.wlan[0].mac.queue packetPopped:sum(packetBytes) 0
attr interpolationmode none
attr title "packet popped, sum(packetBytes)"
statistic _5xta0_mac_assignment.Cell7.wlan[0].mac.queue queueingTime:histogram
field count 0
field mean -nan
field stddev -nan
field min -nan
field max -nan
field sum 0
field sqrsum 0
attr interpolationmode none
attr source queueingTime(packetPopped)
attr title "queueing times, histogram"
attr unit s
bin	-inf	0
bin	0	0
bin	1	0
scalar _5xta0_mac_assignment.Cell7.wlan[0].mac.queue queueLength:max -nan
attr interpolationmode sample-hold
attr source "count(packetPushed) - count(packetPopped) - count(packetRemoved) - count(packetDropped)"
attr title "queue length, max"
scalar _5xta0_mac_assignment.Cell7.wlan[0].mac.queue queueLength:timeavg -nan
attr interpolationmode sample-hold
attr source "count(packetPushed) - count(packetPopped) - count(packetRemoved) - count(packetDropped)"
attr title "queue length, timeavg"
scalar _5xta0_mac_assignment.Cell7.wlan[0].mac.queue packetPushed:count 0
attr interpolationmode none
attr title "packet pushed, count"
scalar _5xta0_mac_assignment.Cell7.wlan[0].mac.queue packetPushed:sum(packetBytes) 0
attr interpolationmode none
attr title "packet pushed, sum(packetBytes)"
scalar _5xta0_mac_assignment.Cell7.wlan[0].mac.queue packetDropQueueOverflow:count 0
attr interpolationmode none
attr source packetDropReasonIsQueueOverflow(packetDropped)
attr title "packet drops: queue overflow, count"
scalar _5xta0_mac_assignment.Cell7.wlan[0].mac.queue packetDropQueueOverflow:sum(packetBytes) 0
attr interpolationmode none
attr source packetDropReasonIsQueueOverflow(packetDropped)
attr title "packet drops: queue overflow, sum(packetBytes)"
scalar _5xta0_mac_assignment.Cell7.wlan[0].mac.queue packetRemoved:count 0
attr interpolationmode none
attr title "packets removed, count"
scalar _5xta0_mac_assignment.Cell7.wlan[0].mac.queue packetRemoved:sum(packetBytes) 0
attr interpolationmode none
attr title "packets removed, sum(packetBytes)"
scalar _5xta0_mac_assignment.Cell7.wlan[0].mac packetDropIncorrectlyReceived:count 0
attr interpolationmode none
attr source packetDropReasonIsIncorrectlyReceived(packetDropped)
attr title "packet drop: incorrectly received, count"
scalar _5xta0_mac_assignment.Cell7.wlan[0].mac packetDropIncorrectlyReceived:sum(packetBytes) 0
attr interpolationmode none
attr source packetDropReasonIsIncorrectlyReceived(packetDropped)
attr title "packet drop: incorrectly received, sum(packetBytes)"
scalar _5xta0_mac_assignment.Cell7.wlan[0].mac packetDropNotAddressedToUs:count 0
attr interpolationmode none
attr source packetDropReasonIsNotAddressedToUs(packetDropped)
attr title "packet drop: not addressed to us, count"
scalar _5xta0_mac_assignment.Cell7.wlan[0].mac packetDropNotAddressedToUs:sum(packetBytes) 0
attr interpolationmode none
attr source packetDropReasonIsNotAddressedToUs(packetDropped)
attr title "packet drop: not addressed to us, sum(packetBytes)"
scalar _5xta0_mac_assignment.Cell7.wlan[0].radio radioMode:count 2
attr interpolationmode sample-hold
attr source radioModeChanged
attr title "Radio mode, count"
scalar _5xta0_mac_assignment.Cell7.wlan[0].radio receptionState:count 0
attr interpolationmode sample-hold
attr source receptionStateChanged
attr title "Radio reception state, count"
scalar _5xta0_mac_assignment.Cell7.wlan[0].radio transmissionState:count 0
attr interpolationmode sample-hold
attr source transmissionStateChanged
attr title "Radio transmission state, count"
statistic _5xta0_mac_assignment.Cell7.wlan[0].radio minSnir:histogram
field count 0
field mean -nan
field stddev -nan
field min -nan
field max -nan
field sum 0
field sqrsum 0
attr source minimumSnir(packetSentToUpper)
attr title "Min SNIR, histogram"
bin	-inf	0
bin	0	0
bin	1	0
statistic _5xta0_mac_assignment.Cell7.wlan[0].radio packetErrorRate:histogram
field count 0
field mean -nan
field stddev -nan
field min -nan
field max -nan
field sum 0
field sqrsum 0
attr source packetErrorRate(packetSentToUpper)
attr title "Packet error rate, histogram"
bin	-inf	0
bin	0	0
bin	1	0
statistic _5xta0_mac_assignment.Cell7.wlan[0].radio bitErrorRate:histogram
field count 0
field mean -nan
field stddev -nan
field min -nan
field max -nan
field sum 0
field sqrsum 0
attr source bitErrorRate(packetSentToUpper)
attr title "Bit error rate, histogram"
bin	-inf	0
bin	0	0
bin	1	0
statistic _5xta0_mac_assignment.Cell7.wlan[0].radio symbolErrorRate:histogram
field count 0
field mean -nan
field stddev -nan
field min -nan
field max -nan
field sum 0
field sqrsum 0
attr source symbolErrorRate(packetSentToUpper)
attr title "Symbol error rate, histogram"
bin	-inf	0
bin	0	0
bin	1	0
scalar _5xta0_mac_assignment.Cell7.eth[0].mac.queue packetPopped:count 0
attr interpolationmode none
attr title "packet popped, count"
scalar _5xta0_mac_assignment.Cell7.eth[0].mac.queue packetPopped:sum(packetBytes) 0
attr interpolationmode none
attr title "packet popped, sum(packetBytes)"
statistic _5xta0_mac_assignment.Cell7.eth[0].mac.queue queueingTime:histogram
field count 0
field mean -nan
field stddev -nan
field min -nan
field max -nan
field sum 0
field sqrsum 0
attr interpolationmode none
attr source queueingTime(packetPopped)
attr title "queueing times, histogram"
attr unit s
bin	-inf	0
bin	0	0
bin	1	0
scalar _5xta0_mac_assignment.Cell7.eth[0].mac.queue queueLength:max -nan
attr interpolationmode sample-hold
attr source "count(packetPushed) - count(packetPopped) - count(packetRemoved) - count(packetDropped)"
attr title "queue length, max"
scalar _5xta0_mac_assignment.Cell7.eth[0].mac.queue queueLength:timeavg -nan
attr interpolationmode sample-hold
attr source "count(packetPushed) - count(packetPopped) - count(packetRemoved) - count(packetDropped)"
attr title "queue length, timeavg"
scalar _5xta0_mac_assignment.Cell7.eth[0].mac.queue packetPushed:count 0
attr interpolationmode none
attr title "packet pushed, count"
scalar _5xta0_mac_assignment.Cell7.eth[0].mac.queue packetPushed:sum(packetBytes) 0
attr interpolationmode none
attr title "packet pushed, sum(packetBytes)"
scalar _5xta0_mac_assignment.Cell7.eth[0].mac.queue packetDropQueueOverflow:count 0
attr interpolationmode none
attr source packetDropReasonIsQueueOverflow(packetDropped)
attr title "packet drops: queue overflow, count"
scalar _5xta0_mac_assignment.Cell7.eth[0].mac.queue packetDropQueueOverflow:sum(packetBytes) 0
attr interpolationmode none
attr source packetDropReasonIsQueueOverflow(packetDropped)
attr title "packet drops: queue overflow, sum(packetBytes)"
scalar _5xta0_mac_assignment.Cell7.eth[0].mac.queue packetRemoved:count 0
attr interpolationmode none
attr title "packets removed, count"
scalar _5xta0_mac_assignment.Cell7.eth[0].mac.queue packetRemoved:sum(packetBytes) 0
attr interpolationmode none
attr title "packets removed, sum(packetBytes)"
scalar _5xta0_mac_assignment.Cell7.eth[0].mac "simulated time" 0.022420235828
scalar _5xta0_mac_assignment.Cell7.eth[0].mac full-duplex 1
scalar _5xta0_mac_assignment.Cell7.eth[0].mac "frames/sec sent" 0
scalar _5xta0_mac_assignment.Cell7.eth[0].mac "frames/sec rcvd" 0
scalar _5xta0_mac_assignment.Cell7.eth[0].mac "bits/sec sent" 0
scalar _5xta0_mac_assignment.Cell7.eth[0].mac "bits/sec rcvd" 0
scalar _5xta0_mac_assignment.Cell7.eth[0].mac "rx channel idle (%)" 100
scalar _5xta0_mac_assignment.Cell7.eth[0].mac "rx channel utilization (%)" 0
scalar _5xta0_mac_assignment.Cell7.eth[0].mac rxPausePkUnits:count 0
attr interpolationmode none
attr title "pause units received, count"
scalar _5xta0_mac_assignment.Cell7.eth[0].mac rxPausePkUnits:sum 0
attr interpolationmode none
attr title "pause units received, sum"
scalar _5xta0_mac_assignment.Cell7.eth[0].mac txPausePkUnits:count 0
attr interpolationmode none
attr title "pause units sent, count"
scalar _5xta0_mac_assignment.Cell7.eth[0].mac txPausePkUnits:sum 0
attr interpolationmode none
attr title "pause units sent, sum"
scalar _5xta0_mac_assignment.Cell7.eth[0].mac rxPkOk:count 0
attr interpolationmode none
attr source rxPkOk
attr title "packets received OK, count"
scalar _5xta0_mac_assignment.Cell7.eth[0].mac rxPkOk:sum(packetBytes) 0
attr interpolationmode none
attr source rxPkOk
attr title "packets received OK, sum(packetBytes)"
scalar _5xta0_mac_assignment.Cell7.eth[0].mac txPk:count 0
attr interpolationmode none
attr source packetSentToLower
attr title "packets transmitted, count"
scalar _5xta0_mac_assignment.Cell7.eth[0].mac txPk:sum(packetBytes) 0
attr interpolationmode none
attr source packetSentToLower
attr title "packets transmitted, sum(packetBytes)"
scalar _5xta0_mac_assignment.Cell7.eth[0].mac packetReceivedFromUpper:count 0
attr interpolationmode none
attr source packetReceivedFromUpper
attr title "packet bytes from higher layer, count"
scalar _5xta0_mac_assignment.Cell7.eth[0].mac packetReceivedFromUpper:sum(packetBytes) 0
attr interpolationmode none
attr source packetReceivedFromUpper
attr title "packet bytes from higher layer, sum(packetBytes)"
scalar _5xta0_mac_assignment.Cell7.eth[0].mac passedUpPk:count 0
attr interpolationmode none
attr source packetSentToUpper
attr title "packets passed to higher layer, count"
scalar _5xta0_mac_assignment.Cell7.eth[0].mac passedUpPk:sum(packetBytes) 0
attr interpolationmode none
attr source packetSentToUpper
attr title "packets passed to higher layer, sum(packetBytes)"
scalar _5xta0_mac_assignment.Cell7.eth[0].mac packetDropIncorrectlyReceived:count 0
attr interpolationmode none
attr source packetDropReasonIsIncorrectlyReceived(packetDropped)
attr title "packet drop: incorrectly received, count"
scalar _5xta0_mac_assignment.Cell7.eth[0].mac packetDropIncorrectlyReceived:sum(packetBytes) 0
attr interpolationmode none
attr source packetDropReasonIsIncorrectlyReceived(packetDropped)
attr title "packet drop: incorrectly received, sum(packetBytes)"
scalar _5xta0_mac_assignment.Cell7.eth[0].mac packetDropInterfaceDown:count 0
attr interpolationmode none
attr source packetDropReasonIsInterfaceDown(packetDropped)
attr title "packet drop: interface down, count"
scalar _5xta0_mac_assignment.Cell7.eth[0].mac packetDropInterfaceDown:sum(packetBytes) 0
attr interpolationmode none
attr source packetDropReasonIsInterfaceDown(packetDropped)
attr title "packet drop: interface down, sum(packetBytes)"
scalar _5xta0_mac_assignment.Cell7.eth[0].mac packetDropNotAddressedToUs:count 0
attr interpolationmode none
attr source packetDropReasonIsNotAddressedToUs(packetDropped)
attr title "packet drop: not addressed to us, count"
scalar _5xta0_mac_assignment.Cell7.eth[0].mac packetDropNotAddressedToUs:sum(packetBytes) 0
attr interpolationmode none
attr source packetDropReasonIsNotAddressedToUs(packetDropped)
attr title "packet drop: not addressed to us, sum(packetBytes)"
scalar _5xta0_mac_assignment.Cell7.eth[0].encap pauseSent:count 0
attr title "pause sent, count"
scalar _5xta0_mac_assignment.Cell7.eth[0].encap pauseSent:sum 0
attr title "pause sent, sum"
scalar _5xta0_mac_assignment.Cell7.eth[0].encap decapPk:count 0
attr interpolationmode none
attr source decapPk
attr title "packets decapsulated, count"
scalar _5xta0_mac_assignment.Cell7.eth[0].encap decapPk:sum(packetBytes) 0
attr interpolationmode none
attr source decapPk
attr title "packets decapsulated, sum(packetBytes)"
scalar _5xta0_mac_assignment.Cell7.eth[0].encap encapPk:count 0
attr interpolationmode none
attr source encapPk
attr title "packets encapsulated, count"
scalar _5xta0_mac_assignment.Cell7.eth[0].encap encapPk:sum(packetBytes) 0
attr interpolationmode none
attr source encapPk
attr title "packets encapsulated, sum(packetBytes)"
scalar _5xta0_mac_assignment.Cell7.ipv4.ip packetDropAddressResolutionFailed:count 0
attr interpolationmode none
attr source packetDropReasonIsAddressResolutionFailed(packetDropped)
attr title "packet drop: address resolution failed, count"
scalar _5xta0_mac_assignment.Cell7.ipv4.ip packetDropAddressResolutionFailed:sum(packetBytes) 0
attr interpolationmode none
attr source packetDropReasonIsAddressResolutionFailed(packetDropped)
attr title "packet drop: address resolution failed, sum(packetBytes)"
scalar _5xta0_mac_assignment.Cell7.ipv4.ip packetDropHopLimitReached:count 0
attr interpolationmode none
attr source packetDropReasonIsHopLimitReached(packetDropped)
attr title "packet drop: hop limit reached, count"
scalar _5xta0_mac_assignment.Cell7.ipv4.ip packetDropHopLimitReached:sum(packetBytes) 0
attr interpolationmode none
attr source packetDropReasonIsHopLimitReached(packetDropped)
attr title "packet drop: hop limit reached, sum(packetBytes)"
scalar _5xta0_mac_assignment.Cell7.ipv4.ip packetDropForwardingDisabled:count 0
attr interpolationmode none
attr source packetDropReasonIsForwardingDisabled(packetDropped)
attr title "packet drop: forwarding disabled, count"
scalar _5xta0_mac_assignment.Cell7.ipv4.ip packetDropForwardingDisabled:sum(packetBytes) 0
attr interpolationmode none
attr source packetDropReasonIsForwardingDisabled(packetDropped)
attr title "packet drop: forwarding disabled, sum(packetBytes)"
scalar _5xta0_mac_assignment.Cell7.ipv4.ip packetDropNoInterfaceFound:count 0
attr interpolationmode none
attr source packetDropReasonIsNoInterfaceFound(packetDropped)
attr title "packet drop: no interface found, count"
scalar _5xta0_mac_assignment.Cell7.ipv4.ip packetDropNoInterfaceFound:sum(packetBytes) 0
attr interpolationmode none
attr source packetDropReasonIsNoInterfaceFound(packetDropped)
attr title "packet drop: no interface found, sum(packetBytes)"
scalar _5xta0_mac_assignment.Cell7.ipv4.ip packetDropNoRouteFound:count 0
attr interpolationmode none
attr source packetDropReasonIsNoRouteFound(packetDropped)
attr title "packet drop: no route found, count"
scalar _5xta0_mac_assignment.Cell7.ipv4.ip packetDropNoRouteFound:sum(packetBytes) 0
attr interpolationmode none
attr source packetDropReasonIsNoRouteFound(packetDropped)
attr title "packet drop: no route found, sum(packetBytes)"
scalar _5xta0_mac_assignment.Cell7.ipv4.ip packetDropUndefined:count 0
attr interpolationmode none
attr source packetDropReasonIsUndefined(packetDropped)
attr title "packet drop: undefined, count"
scalar _5xta0_mac_assignment.Cell7.ipv4.ip packetDropUndefined:sum(packetBytes) 0
attr interpolationmode none
attr source packetDropReasonIsUndefined(packetDropped)
attr title "packet drop: undefined, sum(packetBytes)"
scalar _5xta0_mac_assignment.Cell7.ipv4.arp arpResolutionFailed:count 0
attr title "ARP failed resolutions, count"
scalar _5xta0_mac_assignment.Cell7.ipv4.arp arpResolutionCompleted:count 0
attr title "ARP completed resolutions, count"
scalar _5xta0_mac_assignment.Cell7.ipv4.arp arpResolutionInitiated:count 0
attr title "ARP initiated resolutions, count"
scalar _5xta0_mac_assignment.Cell7.ipv4.arp arpReplySent:count 0
attr source arpReplySent
attr title "ARP replies sent, count"
scalar _5xta0_mac_assignment.Cell7.ipv4.arp arpReplySent:sum(packetBytes) 0
attr source arpReplySent
attr title "ARP replies sent, sum(packetBytes)"
scalar _5xta0_mac_assignment.Cell7.ipv4.arp arpRequestSent:count 0
attr source arpRequestSent
attr title "ARP request sent, count"
scalar _5xta0_mac_assignment.Cell7.ipv4.arp arpRequestSent:sum(packetBytes) 0
attr source arpRequestSent
attr title "ARP request sent, sum(packetBytes)"
scalar _5xta0_mac_assignment.Cell7.udp packetReceived:count 0
attr interpolationmode none
attr source packetReceived
attr title "packets received, count"
scalar _5xta0_mac_assignment.Cell7.udp packetReceived:sum(packetBytes) 0
attr interpolationmode none
attr source packetReceived
attr title "packets received, sum(packetBytes)"
scalar _5xta0_mac_assignment.Cell7.udp packetSent:count 0
attr interpolationmode none
attr source packetSent
attr title "packets sent, count"
scalar _5xta0_mac_assignment.Cell7.udp packetSent:sum(packetBytes) 0
attr interpolationmode none
attr source packetSent
attr title "packets sent, sum(packetBytes)"
scalar _5xta0_mac_assignment.Cell7.udp passedUpPk:count 0
attr interpolationmode none
attr source packetSentToUpper
attr title "packets passed up, count"
scalar _5xta0_mac_assignment.Cell7.udp droppedPkWrongPort:count 0
attr interpolationmode none
attr source packetDropReasonIsNoPortFound(packetDropped)
attr title "packets dropped (wrong port), count"
scalar _5xta0_mac_assignment.Cell7.udp droppedPkBadChecksum:count 0
attr interpolationmode none
attr source packetDropReasonIsIncorrectlyReceived(packetDropped)
attr title "packets dropped (checksum error), count"
scalar _5xta0_mac_assignment.Cell7.app[0] "packets sent" 0
scalar _5xta0_mac_assignment.Cell7.app[0] "packets received" 0
scalar _5xta0_mac_assignment.Cell7.app[0] packetReceived:count 0
attr interpolationmode none
attr source packetReceived
attr title "packets received, count"
scalar _5xta0_mac_assignment.Cell7.app[0] packetReceived:sum(packetBytes) 0
attr interpolationmode none
attr source packetReceived
attr title "packets received, sum(packetBytes)"
statistic _5xta0_mac_assignment.Cell7.app[0] rcvdPkLifetime:stats
field count 0
field mean -nan
field stddev -nan
field min -nan
field max -nan
field sum 0
field sqrsum 0
attr interpolationmode none
attr source dataAge(packetReceived)
attr title "received packet lifetime, stats"
attr unit s
scalar _5xta0_mac_assignment.Cell7.app[0] packetSent:count 0
attr interpolationmode none
attr source packetSent
attr title "packets sent, count"
scalar _5xta0_mac_assignment.Cell7.app[0] packetSent:sum(packetBytes) 0
attr interpolationmode none
attr source packetSent
attr title "packets sent, sum(packetBytes)"

